84
input.log
O               -1.661142            3.147764           -0.367368
C               -1.430423            2.179127           -1.344876
C               -0.010926            2.243006           -1.904301
C                0.991408            2.158400           -0.753178
C                0.706246            3.251407            0.264069
C               -0.745731            3.149178            0.725129
H               -2.170087            2.374152           -2.129364
H                0.113402            3.208335           -2.401480
H                0.906071            1.176754           -0.275774
H                1.346721            3.096653            1.147452
H               -0.837859            2.211936            1.293504
O                1.042010            4.459659           -0.378247
O                2.325921            2.253214           -1.226556
O                0.204561            1.237112           -2.864759
O               -1.574669            0.864529           -0.851187
C               -1.178787            4.288937            1.628201
H               -2.206309            4.111521            1.964735
H               -0.531360            4.323653            2.508137
O               -1.062190            5.547816            0.987412
H               -1.755471            5.608898            0.323594
H                0.533599            5.178598            0.028171
H                2.488959            3.179961           -1.445068
H               -0.290603            0.462090           -2.577305
O               -3.786089           -2.091784            0.629366
C               -2.752571           -1.427049            1.281497
C               -2.820525            0.086492            1.061681
C               -2.873656            0.499402           -0.411113
C               -3.483512           -0.588873           -1.313020
C               -4.425948           -1.450832           -0.474711
H               -2.873127           -1.630927            2.352320
H               -1.949121            0.549525            1.523860
H               -3.529528            1.375489           -0.435416
H               -4.093963           -0.104923           -2.087623
H               -5.221500           -0.793818           -0.098316
O               -2.469475           -1.344349           -1.951439
O               -4.011856            0.574620            1.650177
O               -1.552551           -2.050386            0.843423
C               -5.049816           -2.585903           -1.268064
H               -5.791276           -3.101775           -0.649750
H               -5.552516           -2.196726           -2.156492
O               -4.053798           -3.496115           -1.720308
H               -3.697609           -3.927297           -0.935956
H               -2.840410           -2.232994           -2.115847
H               -4.007445            0.363669            2.587967
O                2.006997           -1.731949            0.434613
C                2.498651           -1.609470            1.769995
C                1.539134           -0.746601            2.574039
C                0.111284           -1.271791            2.515345
C               -0.300785           -1.440895            1.057583
C                0.727122           -2.365311            0.397665
H                2.578715           -2.619630            2.207919
H                1.557087            0.257824            2.122285
H                0.071780           -2.255258            3.008921
H                0.777398           -3.308270            0.964839
H               -0.258890           -0.472131            0.544282
O               -0.748355           -0.367345            3.178133
O                1.894252           -0.695600            3.932819
O                3.713805           -0.969611            1.767149
C                0.396222           -2.720362           -1.036761
H                1.241233           -3.277308           -1.455948
H               -0.472934           -3.383917           -1.033182
O                0.158037           -1.589714           -1.843760
H               -0.809419           -1.407282           -1.821017
H               -0.377203           -0.218505            4.054953
H                2.766787           -0.297873            4.005878
C                4.861659           -1.749237            1.415486
H                5.701177           -1.253385            1.909513
H                4.762976           -2.755587            1.840651
C                5.083043           -1.807015           -0.086846
H                4.246484           -2.353825           -0.533679
H                5.980735           -2.405361           -0.281036
C                5.230437           -0.414414           -0.695778
H                4.484252            0.254891           -0.250946
H                6.198436            0.006023           -0.404397
C                5.118644           -0.360462           -2.218816
H                5.237155            0.678588           -2.545078
H                5.933096           -0.923659           -2.686500
C                3.810980           -0.909812           -2.773441
H                3.760761           -1.997974           -2.694659
H                3.691245           -0.648713           -3.826301
N                2.640938           -0.367288           -2.038915
H                2.620280           -0.704677           -1.064448
H                1.734576           -0.675371           -2.419269
H                2.630574            0.669213           -2.006197
