72
b-b12n
C       -0.359315858      4.076945599      0.819165106
H       -1.123136221      3.559109424      1.380257032
O       -0.471254460      5.512411386      0.841697864
H        0.262644317      5.882870469      1.337432321
C        2.038611121      4.093923130      0.814300276
H        2.882954816      3.757692210      1.397766207
O        0.838181832      3.761355433      1.501170985
C       -0.443461724      3.395132061     -0.548915127
H       -1.315142865      3.789875463     -1.049664203
N       -0.609793454      1.956408387     -0.408094641
H        0.227507252      1.457027741     -0.492656221
C       -1.700066804      1.435746725      0.046129611
O       -2.843517594      2.337238333      0.319697764
C       -1.866794826      0.161763081      0.705887306
H       -0.974144196     -0.369671637      0.410672139
H       -2.676882917     -0.097672101      0.040417042
H       -2.130263046     -0.110877543      1.717149679
C        0.814897456      3.734256804     -1.366157975
H        0.816435671      3.147118144     -2.272615822
O        0.795897171      5.133498866     -1.705805793
C        2.075072596      3.423011722     -0.557879732
H        2.948930507      3.740972525     -1.107127652
O        2.061319108      2.000153476     -0.468995308
C        2.117441955      5.622085161      0.640788010
H        2.587352165      6.059275377      1.509378311
H        1.121022245      6.023710225      0.530130567
O        2.893127167      5.932570414     -0.532033954
H        3.139303477      6.860339804     -0.516503859
C        3.135406087      1.562115717      0.384269061
H        2.974961559      1.942476967      1.382258476
C        5.467324681      1.714978474      0.698583706
H        5.349895332      2.203358070      1.654667238
O        4.347756568      2.053552313     -0.109633843
C        3.164883319      0.048641474      0.419633826
H        3.364214296     -0.339468588     -0.568312398
O        1.901240131     -0.453826698      0.893270424
H        2.027733222     -1.322304606      1.282302070
C        4.271379009     -0.383792998      1.370712891
H        4.039321712     -0.036820164      2.366784809
O        4.359574297     -1.821083446      1.374926999
H        4.887622262     -2.111475555      0.627640059
C        5.603393544      0.205028347      0.927562875
H        6.344365042      0.028290436      1.693150852
O        6.020299708     -0.424782353     -0.298458223
H        6.960390385     -0.280414642     -0.428794259
C        6.743716279      2.248677070      0.022129497
H        6.715818042      3.328120939      0.001571750
H        6.800728919      1.870727961     -0.987971503
O        7.898347243      1.812340738      0.763774926
H        8.674291249      2.286462884      0.456010260
C       -3.928075233      1.735553615      1.017936896
H       -4.857266418      2.140451026      0.645026950
C       -4.859798913     -0.413170020      1.463941810
H       -5.852583791     -0.172971815      1.113109929
O       -3.913877266      0.405264768      0.745777916
C       -3.819512185      2.047193324      2.500843003
H       -2.849419917      1.736063761      2.859339011
O       -3.969634426      3.465309734      2.700865906
H       -4.189067554      3.637452336      3.619460499
C       -4.905441372      1.307702970      3.272398333
H       -5.877236620      1.666725380      2.967247706
O       -4.731089135      1.528301094      4.684679383
H       -4.020525948      0.970922489      5.010300401
C       -4.796457843     -0.179488646      2.974406665
H       -5.612958544     -0.701492352      3.451102308
O       -3.545272071     -0.679449023      3.482514711
H       -3.576622847     -1.638067127      3.523361488
C       -4.567479779     -1.894506939      1.160972412
H       -5.331412394     -2.511456659      1.610616718
H       -3.603324612     -2.161686079      1.567691138
H       -4.562712530     -2.049251185      0.092126543
H        1.694197924      5.471856908     -1.718828593
