72
input.log
C                1.012790            1.681487            0.160124
H                1.509610            1.214736           -0.722767
O                1.721357            2.781054            0.659480
H                2.698666            2.548488            0.777733
C                0.408274           -0.526613            1.016373
H                0.153599           -0.867934            2.055176
O                1.002798            0.754408            1.275673
C               -0.447722            2.158180           -0.134853
H               -0.556649            2.291927           -1.252063
N               -0.726293            3.460738            0.521828
H                0.101964            3.904779            0.971254
C               -1.939607            4.079303            0.547256
O               -3.014950            3.562992            0.080421
C               -2.053109            5.431560            1.150844
H               -1.793564            5.449956            2.225051
H               -3.094110            5.814118            1.080127
H               -1.417233            6.183995            0.649322
C               -1.435388            1.071752            0.338261
H               -1.789297            1.235701            1.385564
O               -2.570363            1.207117           -0.563005
H               -3.369717            0.439867           -0.278079
C               -0.892003           -0.360783            0.189350
H               -0.785108           -0.652704           -0.879247
O               -1.892766           -1.163828            0.849940
C                1.419550           -1.488553            0.361585
H                0.957902           -2.163078           -0.384768
H                1.942420           -2.107576            1.117493
O                2.375143           -0.752217           -0.425721
C               -2.480552           -2.238057            0.088765
H               -1.717131           -3.007426           -0.153835
C               -4.251686           -1.725447           -1.545185
H               -4.493752           -2.797193           -1.763222
O               -2.854484           -1.674535           -1.167322
C               -3.612621           -2.729712            1.013441
H               -3.271975           -2.680245            2.079158
O               -3.820723           -4.081785            0.593322
H               -3.957407           -4.673816            1.370449
C               -4.974134           -1.996013            0.887936
H               -5.792807           -2.764095            0.967652
O               -5.185620           -1.188144            2.027303
H               -4.706823           -0.326049            1.960446
C               -5.145447           -1.189572           -0.418032
H               -6.219705           -1.162944           -0.721386
O               -4.787317            0.189850           -0.096532
H               -5.056356            0.771407           -0.903010
C               -4.307201           -0.862493           -2.815175
H               -5.309725           -0.887661           -3.289078
H               -3.542326           -1.179009           -3.550055
O               -4.118968            0.521130           -2.474360
H               -3.143879            0.714462           -2.404767
C                3.552648           -0.351078            0.291158
H                3.300139            0.160718            1.241237
C                5.579252           -1.519372            1.015201
H                5.608919           -0.884048            1.928089
O                4.197570           -1.607055            0.562205
C                4.333391            0.505236           -0.726192
H                4.102527            0.192300           -1.773130
O                3.817156            1.839870           -0.542461
H                4.347824            2.473992           -1.089560
C                5.861027            0.519097           -0.472902
H                6.124874            1.271438            0.308059
O                6.486436            1.015353           -1.646310
H                6.674247            0.265945           -2.281387
C                6.400231           -0.891130           -0.131768
H                7.492794           -0.855449            0.096840
O                6.341098           -1.670022           -1.325175
H                5.438772           -2.076326           -1.420901
C                5.959976           -2.956114            1.306550
H                6.219335           -3.512538            0.392042
H                5.126150           -3.496959            1.779328
H                6.823344           -3.019269            1.981660
H               -3.018415            2.411758           -0.348299
