72
b-bgh2
C       -3.606994000     -2.875194000      0.090402000
H       -3.395009970     -3.386469722     -0.855984624
O       -4.815583026     -3.428314079      0.542188198
H       -4.630072798     -4.068755558      1.235944432
C       -1.282783000     -2.398272000      0.292520000
H       -1.120749000     -2.653750000     -0.762864000
O       -2.431235000     -3.096085000      0.790678000
C       -3.946862000     -1.379883000      0.027220000
H       -4.240984000     -1.063704000      1.034397000
N       -5.107506000     -1.214597000     -0.852995000
H       -5.316852000     -2.011008000     -1.444058000
C       -5.888201000     -0.156801000     -0.932743000
O       -5.601700000      0.946166000     -0.360052000
C       -7.158598000     -0.217354000     -1.694413000
H       -7.350879000     -1.201742000     -2.119411000
H       -7.132879000      0.536253000     -2.485238000
H       -7.974245000      0.053504000     -1.018177000
C       -2.756550000     -0.522934000     -0.393836000
H       -2.522807000     -0.694708000     -1.451960000
O       -3.166013000      0.821369000     -0.212915000
H       -2.435065000      1.426281000      0.060327000
C       -1.532050000     -0.901713000      0.428305000
H       -1.694740000     -0.668802000      1.487128000
O       -0.404390000     -0.208286000     -0.068389000
C       -0.081564000     -2.851196000      1.093261000
H        0.811681000     -2.412973000      0.643498000
H       -0.001573000     -3.942757000      1.018790000
O       -0.128081000     -2.419006000      2.435479000
H       -0.771348000     -2.951882000      2.908868000
C        0.086314000      0.804934000      0.754041000
H        0.365041000      0.405458000      1.742195000
C       -0.635715000      3.002518000      1.476259000
H       -0.285630000      2.856340000      2.509121000
O       -0.958555000      1.742969000      0.893797000
C        1.295452000      1.396132000      0.046152000
H        1.040248000      1.496197000     -1.015607000
O        2.415798000      0.556816000      0.229150000
C        1.684109000      2.767697000      0.578201000
H        2.122327000      2.634391000      1.579957000
O        2.589858000      3.399079000     -0.287324000
H        3.156544000      2.730769000     -0.711947000
C        0.471926000      3.683171000      0.693496000
H        0.772160000      4.588711000      1.240395000
O       -0.014737000      4.023906000     -0.588515000
H        0.755108000      4.262576000     -1.120285000
C       -1.944042000      3.786437000      1.498690000
H       -1.729483000      4.823615000      1.789068000
H       -2.608837000      3.358662000      2.253463000
O       -2.628486000      3.706776000      0.271788000
H       -2.025978000      4.035196000     -0.408778000
C        2.759968000     -0.332062000     -0.805514000
H        1.970706000     -0.352783000     -1.562743000
C        3.858458000     -1.801812000      0.716261000
H        3.652461000     -1.078138000      1.513906000
O        2.861835000     -1.638037000     -0.314688000
C        4.089158000      0.103041000     -1.413424000
H        4.274723000     -0.535327000     -2.289071000
O        3.979614000      1.451863000     -1.827590000
H        4.862779000      1.730897000     -2.098434000
C        5.233385000     -0.072005000     -0.424720000
H        5.092086000      0.640362000      0.395074000
O        6.450667000      0.260899000     -1.051247000
H        6.755840000     -0.531324000     -1.510717000
C        5.231772000     -1.491171000      0.133511000
H        5.988655000     -1.566253000      0.920438000
O        5.620381000     -2.408517000     -0.875018000
H        4.838761000     -2.646849000     -1.383587000
C        3.726802000     -3.207526000      1.250501000
H        4.490475000     -3.386834000      2.011044000
H        3.860942000     -3.944844000      0.455886000
H        2.746773000     -3.350707000      1.708840000
H       -4.577498000      1.025055000     -0.166081000
