 84
xyz test file
O         -1.208      2.155     -0.152
C         -2.328      1.572      0.475
C         -2.552      2.269      1.809
C         -1.478      3.310      2.061
C         -1.542      4.293      0.897
C         -1.334      3.544     -0.412
C          0.056      4.025     -0.824
O          1.036      3.762      0.154
O         -0.578      5.322      1.096
O         -0.759      2.814      3.169
O         -3.792      2.917      1.853
O         -2.290      0.204      0.257
C         -3.475     -0.508     -0.075
C         -3.544     -1.708      0.847
O         -3.643     -1.255      2.183
C         -2.287     -2.543      0.670
C         -1.951     -2.824     -0.805
O         -2.089     -1.673     -1.629
C         -3.343     -1.020     -1.503
C         -3.376      0.085     -2.541
O         -4.571      0.806     -2.327
O         -0.653     -3.302     -0.981
C          0.401     -2.515     -0.458
C          1.189     -3.331      0.553
C          2.349     -2.506      1.077
C          3.202     -1.967     -0.060
O          2.402     -1.301     -1.015
C          1.336     -2.055     -1.581
C          0.664     -1.131     -2.579
O          0.166      0.046     -1.952
O          4.049     -1.018      0.489
C          5.158     -0.648     -0.336
C          5.839      0.560      0.279
C          4.942      1.744      0.647
C          4.299      2.537     -0.495
C          3.173      1.868     -1.268
N          2.066      1.432     -0.376
O          3.086     -3.331      1.943
O          0.346     -3.697      1.626
O         -2.454     -3.743      1.376
H         -3.361      1.954      0.434
H         -2.474      1.489      2.583
H         -1.731      4.371      2.206
H         -2.542      4.746      0.869
H         -1.944      3.471     -1.327
H          0.041      5.105     -0.989
H          0.324      3.543     -1.773
H          1.110      2.804      0.250
H         -0.655      5.557      2.032
H         -1.366      2.747      3.913
H         -4.496      2.302      1.585
H         -4.361      0.123      0.033
H         -4.428     -2.305      0.584
H         -3.591     -2.029      2.755
H         -1.482     -1.953      1.117
H         -2.602     -3.625     -1.175
H         -4.164     -1.722     -1.710
H         -2.498      0.732     -2.414
H         -3.337     -0.370     -3.537
H         -4.775      1.326     -3.106
H          0.017     -1.615      0.034
H          1.576     -4.232      0.055
H          1.934     -1.639      1.616
H          3.768     -2.783     -0.540
H          1.723     -2.933     -2.119
H          1.405     -0.810     -3.315
H         -0.141     -1.662     -3.090
H         -0.688     -0.171     -1.544
H          4.802     -0.445     -1.350
H          5.859     -1.490     -0.392
H          6.623      0.886     -0.415
H          6.353      0.234      1.189
H          5.559      2.448      1.212
H          4.182      1.407      1.362
H          5.068      2.816     -1.225
H          3.917      3.481     -0.089
H          2.731      2.563     -1.983
H          3.501      0.980     -1.806
H          1.576      2.234      0.065
H          2.432      0.795      0.333
H          1.357      0.896     -0.913
H          3.760     -2.802      2.378
H          0.897     -4.118      2.295
H         -1.564     -4.077      1.557
