38
shape
  C   -35.26 -35.26 -35.26
   C   35.26  35.26  35.26
  B  -35.26  74.20 -35.26 
B   35.26 -74.20  35.26
  B   74.20 -35.26 -35.26 
B  -74.20  35.26  35.26
  B  -35.26 -35.26  74.20 
B   35.26  35.26 -74.20
  H   -42.16   9.07 -17.83  
  H    42.16  -9.07  17.83
  H    42.16  17.83  -9.06
  H   -42.16 -17.83   9.06
  H   -17.83 -42.16   9.07
  H    17.83  42.16  -9.07
  H    -9.07  42.16  17.83
  H     9.07 -42.16 -17.83
  H     9.07 -17.83 -42.16
  H    -9.07  17.83  42.16
  H    17.83  -9.07  42.16
  H   -17.83   9.07 -42.16
  S     0.00  50.84 -50.84
  S    0.00 -50.84  50.84
  S    50.84 -50.84   0.00
  S  -50.84  50.84   0.00
  S   -50.84   0.00  50.84 
  S   50.84   0.00 -50.84
  P    -35.26  17.37 -35.26
  P    35.26 -17.37  35.26
  P     46.86   0.00   0.00
  P   -46.86   0.00   0.00
  P    -35.26 -35.26  17.37
  P    35.26  35.26 -17.37
  P      0.00  46.86   0.00
  P     0.00 -46.86   0.00
  P     17.37 -35.26 -35.26
  P   -17.37  35.26  35.26
  P      0.00   0.00  46.86 
  P     0.00   0.00 -46.86


