84
input.log
O                1.928737            1.943005            2.064701
C                1.976281            0.540243            2.008221
C                0.715567           -0.091012            2.607097
C               -0.538361            0.536962            1.997522
C               -0.466856            2.057102            2.058622
C                0.810751            2.495212            1.366888
H                2.867188            0.252109            2.573539
H                0.720099            0.128424            3.680834
H               -0.625970            0.217741            0.953914
H               -1.330020            2.491811            1.547486
H                0.791740            2.124911            0.336769
O               -0.546977            2.485901            3.406671
O               -1.706644            0.061911            2.647557
O                0.711811           -1.492318            2.478137
O                2.054768            0.057230            0.692301
C                0.992814            3.995986            1.296787
H                0.875964            4.444703            2.290412
H                2.004484            4.209427            0.931486
O                0.001970            4.463075            0.396361
H               -0.094253            5.411660            0.497645
H                0.341658            2.482887            3.779071
H               -1.807536            0.555943            3.471000
H                1.195289           -1.745434            1.675023
O                2.238129           -1.552332           -1.490075
C                2.358394           -0.362720           -2.260292
C                2.935646            0.796332           -1.405918
C                3.272577            0.324520            0.003581
C                4.148033           -0.919134           -0.067825
C                3.475730           -2.007005           -0.949196
H                3.053651           -0.547578           -3.089924
H                2.193031            1.594257           -1.344657
H                3.813339            1.129898            0.509906
H                5.083054           -0.613739           -0.547094
H                4.144218           -2.245864           -1.790182
O                4.418607           -1.410197            1.244040
O                4.146175            1.268821           -1.965813
O                1.138935           -0.097429           -2.863752
C                3.181662           -3.303348           -0.216546
H                2.627266           -3.960547           -0.890763
H                4.125344           -3.796712            0.037181
O                2.383545           -3.118653            0.937878
H                2.980510           -2.759855            1.606601
H                5.332243           -1.233967            1.473155
H                3.944343            1.899562           -2.660445
O               -2.173401           -0.616789           -1.454094
C               -2.810823            0.603661           -1.789793
C               -1.846860            1.750550           -1.550585
C               -0.542202            1.548792           -2.305747
C                0.027157            0.164533           -2.016120
C               -1.053280           -0.888980           -2.278827
H               -3.124014            0.571767           -2.849143
H               -1.632064            1.753998           -0.472738
H               -0.747378            1.619728           -3.384956
H               -1.338726           -0.838109           -3.342592
H                0.332309            0.106948           -0.965568
O                0.399342            2.527926           -1.929073
O               -2.370562            2.988248           -1.960219
O               -3.884754            0.780112           -0.947904
C               -0.620427           -2.308096           -1.986872
H               -1.466621           -2.975359           -2.169058
H                0.194450           -2.585960           -2.659816
O               -0.224597           -2.485164           -0.637093
H                0.705007           -2.211294           -0.575455
H               -0.064328            3.351062           -1.727573
H               -3.148980            3.176313           -1.428149
C               -4.982227           -0.110822           -1.171769
H               -5.742959            0.410160           -1.763854
H               -4.635783           -0.975653           -1.746940
C               -5.550534           -0.544050            0.165469
H               -6.410571           -1.196685           -0.028500
H               -5.940461            0.339489            0.681347
C               -4.541478           -1.243663            1.073776
H               -3.709676           -0.553335            1.245710
H               -5.011362           -1.416961            2.049725
C               -4.029858           -2.572831            0.524325
H               -4.872375           -3.250678            0.346212
H               -3.536339           -2.417573           -0.440517
C               -3.066922           -3.291061            1.454574
H               -2.799671           -4.274467            1.061897
H               -3.503265           -3.428085            2.447797
N               -1.800059           -2.529378            1.624416
H               -1.137896           -2.988656            2.250170
H               -1.947194           -1.591284            2.039355
H               -1.286698           -2.413151            0.719571
