84
input.log
O               -4.217035           -0.789966           -0.859699
C               -3.249300            0.203745           -0.987865
C               -3.850696            1.571101           -0.701807
C               -4.461486            1.599839            0.690826
C               -5.500014            0.499348            0.820799
C               -4.896884           -0.840758            0.395092
H               -2.896055            0.138090           -2.023036
H               -4.636309            1.742152           -1.447160
H               -3.664623            1.434194            1.422252
H               -5.803303            0.410121            1.869722
H               -4.193433           -1.143764            1.183819
O               -6.600182            0.891501            0.022386
O               -4.994650            2.880289            0.939592
O               -2.852207            2.577705           -0.809153
O               -2.180707            0.045330           -0.087397
C               -5.970011           -1.899976            0.205420
H               -6.471483           -1.699900           -0.749373
H               -5.505864           -2.891523            0.151488
O               -6.865090           -1.792765            1.296511
H               -7.478704           -2.529525            1.277597
H               -7.371219            0.400710            0.321730
H               -5.890564            2.881686            0.578272
H               -3.261230            3.380555           -0.459229
O                1.035152           -2.559558           -0.295072
C                0.576999           -2.202736            0.980152
C               -0.388574           -1.024318            0.917304
C               -1.481962           -1.183493           -0.119102
C               -0.816034           -1.469605           -1.463737
C                0.076947           -2.705898           -1.327786
H                0.104321           -3.066005            1.477714
H                0.209408           -0.177616            0.592097
H               -2.160129           -2.014199            0.123780
H               -1.581024           -1.697890           -2.218502
H               -0.571892           -3.575291           -1.134043
O               -0.082820           -0.317517           -1.855118
O               -0.857546           -0.669472            2.199573
O                1.682286           -1.900811            1.766483
C                0.899219           -2.968359           -2.584343
H                1.481109           -3.885800           -2.447554
H                0.231819           -3.111916           -3.438820
O                1.743658           -1.871044           -2.873899
H                2.519267           -1.898750           -2.269213
H                0.690415           -0.643301           -2.375323
H               -1.150111           -1.450088            2.679118
O                5.051323           -0.645094            1.278305
C                4.771234            0.682430            0.994503
C                3.759063            1.258801            1.982989
C                2.567833            0.309210            2.209970
C                2.580345           -0.897212            1.276569
C                3.955612           -1.571348            1.220732
H                5.722458            1.215242            1.101762
H                3.366844            2.195887            1.579518
H                2.647082           -0.067001            3.237336
H                4.048264           -2.201192            2.112021
H                2.292311           -0.586866            0.268625
O                1.366621            1.066106            2.082693
O                4.401315            1.603149            3.186090
O                4.297425            0.793632           -0.337518
C                4.120150           -2.462445           -0.000258
H                5.132170           -2.882206            0.019037
H                3.396686           -3.277469            0.053470
O                3.895455           -1.781172           -1.222818
H                4.264815           -0.886277           -1.144180
H                0.656845            0.589154            2.539057
H                4.888703            0.837640            3.506850
C                4.719769            1.966793           -1.029623
H                4.543186            2.849688           -0.401506
H                5.797615            1.909408           -1.225981
C                3.938476            2.054107           -2.324248
H                4.216379            1.210586           -2.965101
H                4.253808            2.962020           -2.850984
C                2.425079            2.054558           -2.124428
H                1.938025            2.047752           -3.106402
H                2.147614            1.116512           -1.631134
C                1.915660            3.243536           -1.316856
H                2.360167            3.250613           -0.314571
H                2.229440            4.178260           -1.794716
C                0.406926            3.292213           -1.174810
H               -0.090711            3.313398           -2.147361
H                0.096095            4.178921           -0.618234
N               -0.123551            2.106986           -0.450730
H               -0.023534            1.230498           -1.004698
H               -1.147297            2.203529           -0.307494
H                0.353414            1.961340            0.449841
