84
input.log
O               -4.075028           -1.027357           -0.078716
C               -3.300481           -0.372366           -1.036558
C               -3.844388            1.030563           -1.258760
C               -3.879052            1.817621            0.044681
C               -4.709954            1.054696            1.063963
C               -4.158859           -0.363506            1.194405
H               -3.385859           -0.980203           -1.945636
H               -4.870987            0.914289           -1.622482
H               -2.857889            1.940974            0.418984
H               -4.612491            1.540506            2.047081
H               -3.153872           -0.293711            1.631400
O               -6.040174            1.136778            0.602626
O               -4.386823            3.107092           -0.217488
O               -3.076445            1.737352           -2.228825
O               -1.951216           -0.245617           -0.645988
C               -5.003029           -1.263796            2.073847
H               -4.518523           -2.243027            2.163683
H               -5.071356           -0.829044            3.074134
O               -6.332214           -1.397062            1.598683
H               -6.309121           -1.918300            0.791066
H               -6.547880            0.407265            0.988101
H               -5.349871            3.043975           -0.170732
H               -3.446954            2.630757           -2.236200
O                1.209193           -2.814314           -0.139088
C                0.718353           -2.217786            1.043243
C               -0.244768           -1.065188            0.735230
C               -1.284103           -1.452803           -0.302315
C               -0.622183           -2.087470           -1.523579
C                0.250361           -3.260034           -1.081460
H                0.194641           -2.967618            1.651153
H                0.308873           -0.245050            0.272904
H               -1.998590           -2.163027            0.132178
H               -1.397916           -2.467160           -2.203038
H               -0.395040           -4.033700           -0.636885
O                0.159959           -1.105599           -2.190020
O               -0.884127           -0.636764            1.905767
O                1.837369           -1.858142            1.792021
C                1.050974           -3.882036           -2.221099
H                1.613742           -4.740088           -1.839879
H                0.367575           -4.241229           -2.995108
O                1.920527           -2.935051           -2.821617
H                2.731314           -2.871214           -2.278665
H                0.921519           -1.573207           -2.605566
H               -0.218789           -0.202927            2.467178
O                4.688515            0.354335            1.123758
C                3.984547            1.566284            1.201324
C                2.977842            1.605809            2.360914
C                2.599689            0.191593            2.757235
C                2.511492           -0.644297            1.487636
C                3.929116           -0.847067            0.942661
H                4.757275            2.321108            1.378757
H                2.068126            2.102991            1.993103
H                3.378399           -0.213736            3.414065
H                4.430243           -1.617072            1.540259
H                1.955990           -0.075591            0.741216
O                1.358048            0.243370            3.451541
O                3.556987            2.331370            3.412279
O                3.266915            1.841791            0.022642
C                4.004291           -1.253614           -0.529644
H                3.285492           -0.654143           -1.109498
H                5.009224           -1.016559           -0.883865
O                3.809336           -2.636119           -0.752191
H                3.005490           -2.897190           -0.278732
H                1.315268           -0.518883            4.035725
H                2.924736            2.378596            4.134579
C                4.078800            2.216643           -1.087499
H                4.505074            3.213124           -0.903322
H                4.908148            1.507931           -1.189020
C                3.240000            2.211866           -2.350625
H                2.772748            1.223055           -2.448649
H                3.930134            2.293659           -3.197045
C                2.199755            3.326928           -2.486363
H                2.712346            4.294748           -2.494534
H                1.750205            3.247955           -3.486900
C                1.102596            3.389407           -1.417574
H                1.541796            3.687733           -0.462209
H                0.377122            4.167280           -1.683534
C                0.394846            2.074457           -1.160039
H               -0.337376            2.159910           -0.355862
H                1.129079            1.323956           -0.870505
N               -0.333143            1.541306           -2.351619
H               -0.223046            0.501324           -2.382910
H                0.032007            1.933662           -3.217204
H               -1.360672            1.714818           -2.297067
