84
input.log
O               -4.211077           -0.764582           -0.471466
C               -3.132742            0.096417           -0.687057
C               -3.573605            1.548396           -0.573372
C               -4.238096            1.818245            0.769502
C               -5.400243            0.853222            0.951098
C               -4.897245           -0.580595            0.770402
H               -2.772395           -0.124850           -1.696611
H               -4.314107            1.714653           -1.364168
H               -3.504541            1.676470            1.569656
H               -5.790738            0.942709            1.976604
H               -4.210596           -0.794555            1.603742
O               -6.371187            1.256750            0.013464
O               -4.637495            3.167987            0.822295
O               -2.467301            2.421678           -0.754690
O               -2.098107           -0.095843            0.247481
C               -6.003186           -1.619859            0.796258
H               -5.563701           -2.621088            0.715802
H               -6.533626           -1.559086            1.749842
O               -6.966897           -1.405044           -0.217892
H               -6.561791           -1.609797           -1.065532
H               -6.978163            0.519232           -0.146212
H               -5.499939            3.225217            0.390952
H               -2.789185            3.297751           -0.503849
O                0.930649           -2.883661            0.027088
C                0.685400           -2.306076            1.286571
C               -0.242909           -1.109457            1.135285
C               -1.475625           -1.377126            0.301654
C               -1.044799           -1.935355           -1.047449
C               -0.179672           -3.176623           -0.796866
H                0.269832           -3.039095            1.990167
H                0.327276           -0.370915            0.573912
H               -2.147510           -2.098074            0.787262
H               -1.927557           -2.251694           -1.619852
H               -0.815816           -3.950304           -0.337158
O               -0.344734           -0.927292           -1.761930
O               -0.548887           -0.585068            2.412568
O                1.914973           -1.938891            1.817026
C                0.421998           -3.726422           -2.084209
H                0.998510           -4.628293           -1.854211
H               -0.375564           -3.998446           -2.781234
O                1.232503           -2.753693           -2.716869
H                2.081394           -2.681174           -2.228970
H                0.327941           -1.399586           -2.313557
H               -1.344965           -0.051516            2.311243
O                4.847404           -0.539469            0.109954
C                4.566330            0.814425            0.282257
C                4.028170            1.109861            1.672612
C                2.745441            0.314681            1.951168
C                2.662793           -0.953390            1.103393
C                4.056075           -1.504566            0.810371
H                5.517599            1.337083            0.138163
H                3.790981            2.178740            1.731393
H                2.788247           -0.007802            2.998236
H                4.551236           -1.765367            1.753465
H                2.202768           -0.727434            0.136224
O                1.610482            1.159510            1.768167
O                5.062991            0.748336            2.558453
O                3.628036            1.241078           -0.686517
C                4.029403           -2.714057           -0.107197
H                5.036667           -3.140642           -0.164640
H                3.342362           -3.465120            0.280206
O                3.580815           -2.352572           -1.404408
H                4.116217           -1.600274           -1.682854
H                0.888295            0.776242            2.290983
H                4.867222            1.087968            3.434742
C                4.075185            2.289260           -1.542136
H                5.150554            2.182461           -1.729814
H                3.579922            2.136307           -2.504430
C                3.775836            3.671625           -0.982907
H                4.034481            4.407639           -1.754379
H                4.452118            3.868622           -0.142221
C                2.341277            3.901149           -0.505613
H                2.125798            3.224463            0.329307
H                2.296787            4.907110           -0.077137
C                1.244650            3.806428           -1.570687
H                0.355252            4.342022           -1.216669
H                1.562504            4.331946           -2.478428
C                0.815330            2.407806           -1.985064
H                1.640607            1.816067           -2.377214
H                0.041307            2.456515           -2.754119
N                0.240942            1.633420           -0.855138
H               -0.682049            2.008071           -0.575334
H                0.872194            1.597993           -0.038204
H                0.051626            0.654176           -1.158991
