84
input.log
O                1.985092            2.340615            1.597235
C                2.030245            0.964136            1.827420
C                0.807790            0.517618            2.631626
C               -0.456325            0.871081            1.865186
C               -0.469098            2.361545            1.559269
C                0.833885            2.792390            0.893762
H                2.950007            0.792483            2.393651
H                0.811939            1.086583            3.568275
H               -0.481576            0.299135            0.933211
H               -1.290976            2.574346            0.866953
H                0.831325            2.387263           -0.126117
O               -0.712823            3.004394            2.799477
O               -1.625877            0.524702            2.588116
O                0.826923           -0.879462            2.891922
O                2.051108            0.216703            0.636404
C                0.968311            4.306414            0.851734
H                1.313069            4.644872            1.836376
H                1.719003            4.587682            0.105542
O               -0.309844            4.841174            0.540851
H               -0.223248            5.779568            0.363117
H               -0.980630            3.908612            2.606621
H               -1.804922            1.250398            3.201414
H                1.320522           -1.027507            3.701832
O                2.324121           -1.857866           -1.258341
C                2.445713           -0.823302           -2.207022
C                3.003444            0.474248           -1.565059
C                3.279770            0.303380           -0.076653
C                4.119804           -0.941215            0.168626
C                3.513702           -2.176281           -0.556865
H                3.139596           -1.129989           -3.002398
H                2.275634            1.277893           -1.698358
H                3.834454            1.185680            0.256029
H                5.111978           -0.739154           -0.246781
H                4.257219           -2.565945           -1.269832
O                4.206572           -1.120154            1.579589
O                4.250582            0.816383           -2.143836
O                1.217124           -0.682813           -2.840242
C                3.126348           -3.302688            0.385576
H                2.840049           -4.174503           -0.206891
H                3.979613           -3.584241            1.011551
O                1.999436           -2.971878            1.172255
H                2.162004           -2.137140            1.633543
H                5.081249           -1.436979            1.809408
H                4.096804            1.220988           -3.000359
O               -2.112847           -0.920062           -1.368582
C               -2.747454            0.180364           -1.989293
C               -1.795451            1.359627           -2.000087
C               -0.474933            0.997989           -2.655839
C                0.111581           -0.267184           -2.048302
C               -0.960057           -1.364587           -2.069710
H               -3.040424           -0.096137           -3.018696
H               -1.605291            1.616401           -0.948479
H               -0.654804            0.804205           -3.724515
H               -1.211628           -1.573289           -3.122987
H                0.423440           -0.092180           -1.013560
O                0.436440            2.068345           -2.509169
O               -2.309512            2.464746           -2.703030
O               -3.839797            0.541984           -1.231474
C               -0.545325           -2.671943           -1.433215
H               -1.350709           -3.397326           -1.591757
H                0.358746           -3.039065           -1.921197
O               -0.339235           -2.528559           -0.042430
H                0.601880           -2.642642            0.217305
H               -0.006579            2.860246           -2.832803
H               -3.118533            2.748863           -2.268197
C               -4.930006           -0.383422           -1.254234
H               -5.683477           -0.023849           -1.964163
H               -4.572492           -1.358626           -1.600456
C               -5.515462           -0.485462            0.140494
H               -6.383747           -1.154418            0.097224
H               -5.895371            0.499778            0.430274
C               -4.523284           -0.967971            1.196394
H               -3.672092           -0.279250            1.203606
H               -4.998216           -0.892368            2.182491
C               -4.045792           -2.401511            0.981750
H               -4.908422           -3.075947            0.932903
H               -3.521370           -2.485891            0.024174
C               -3.136637           -2.918915            2.082926
H               -2.897915           -3.973263            1.926711
H               -3.605941           -2.817576            3.065619
N               -1.846574           -2.179781            2.114395
H               -1.206794           -2.544676            2.818065
H               -1.959462           -1.174264            2.338168
H               -1.332201           -2.262184            1.191833
