84
input.log
O               -1.272103            2.913037           -1.367286
C               -1.569787            1.587715           -1.658555
C               -0.459632            0.907456           -2.455659
C                0.856866            1.043711           -1.707377
C                1.143028            2.494800           -1.360838
C               -0.057569            3.118211           -0.655845
H               -2.489713            1.618627           -2.247173
H               -0.377201            1.436378           -3.413046
H                0.799817            0.450774           -0.789865
H                1.997909            2.534014           -0.675595
H               -0.132038            2.666361            0.342221
O                1.478479            3.129121           -2.582501
O                1.938471            0.507851           -2.456710
O               -0.750514           -0.459632           -2.677806
O               -1.768612            0.809575           -0.494773
C                0.080383            4.627082           -0.542155
H               -0.174048            5.065219           -1.515050
H               -0.626673            5.005507            0.203980
O                1.425345            4.905870           -0.184938
H                1.506737            5.837040            0.029267
H                1.918077            3.957996           -2.369683
H                2.203792            1.185488           -3.093140
H               -1.676884           -0.609471           -2.424633
O               -2.630145           -1.569456            1.029238
C               -2.577636           -0.607225            2.077505
C               -2.988228            0.799455            1.554948
C               -3.079251            0.873498            0.031865
C               -3.952376           -0.263212           -0.545797
C               -3.882408           -1.502925            0.356155
H               -3.311193           -0.894790            2.842081
H               -2.242857            1.525823            1.891907
H               -3.523918            1.842828           -0.212830
H               -4.989915            0.084506           -0.573935
H               -4.678860           -1.414701            1.109790
O               -3.505118           -0.527709           -1.868678
O               -4.288179            1.119764            2.019685
O               -1.356419           -0.701153            2.718173
C               -4.031346           -2.810243           -0.410690
H               -3.107022           -3.002843           -0.961244
H               -4.181668           -3.641158            0.285128
O               -5.065247           -2.730282           -1.376108
H               -5.915571           -2.904456           -0.967161
H               -4.152888           -1.126894           -2.263688
H               -4.234555            1.434339            2.924567
O                1.895544           -1.377607            1.235596
C                2.712813           -0.480222            1.968269
C                1.991800            0.847991            2.104517
C                0.610681            0.668237            2.716137
C               -0.172872           -0.410264            1.986864
C                0.685133           -1.678627            1.908003
H                2.922048           -0.911316            2.964527
H                1.876192            1.250415            1.088685
H                0.731033            0.351434            3.763664
H                0.893179           -2.018668            2.936336
H               -0.419045           -0.064206            0.978474
O               -0.105865            1.883577            2.657459
O                2.681050            1.754996            2.929518
O                3.870462           -0.266133            1.256960
C                0.035462           -2.830045            1.172684
H                0.744293           -3.660472            1.128632
H               -0.853274           -3.155939            1.718318
O               -0.302160           -2.497186           -0.164219
H               -1.105893           -1.956071           -0.120329
H                0.432191            2.550262            3.097501
H                3.529107            1.952763            2.522170
C                4.763499           -1.384937            1.215130
H                5.557957           -1.226092            1.952871
H                4.218665           -2.293489            1.491959
C                5.347609           -1.510594           -0.178221
H                6.051820           -2.351668           -0.172890
H                5.937353           -0.612975           -0.391332
C                4.306135           -1.691139           -1.280152
H                3.634219           -0.828184           -1.254331
H                4.816833           -1.659963           -2.250556
C                3.511651           -2.990983           -1.178393
H                4.196863           -3.846406           -1.188838
H                2.969635           -3.028568           -0.228008
C                2.522671           -3.198775           -2.312900
H                2.051422           -4.181964           -2.246211
H                3.016284           -3.124855           -3.285933
N                1.434117           -2.186006           -2.286310
H                0.759036           -2.302196           -3.041411
H                1.783437           -1.213570           -2.394190
H                0.866831           -2.227676           -1.408671
