84
input.log
O                2.396442           -1.541615            0.838247
C                3.567174           -0.765734            0.862760
C                4.759786           -1.577876            0.373524
C                4.483757           -2.178468           -0.998597
C                3.189187           -2.981744           -0.978522
C                2.075501           -2.107374           -0.424210
H                3.693419           -0.455725            1.900126
H                4.911917           -2.394405            1.084128
H                4.380654           -1.362183           -1.731303
H                2.931224           -3.256334           -2.014560
H                1.886688           -1.297830           -1.145924
O                3.311137           -4.130307           -0.178568
O                5.512489           -3.059556           -1.382424
O                5.948274           -0.822990            0.361977
O                3.468279            0.362100            0.016962
C                0.787478           -2.869007           -0.212760
H                0.486574           -3.357730           -1.142908
H                0.935235           -3.638757            0.548507
O               -0.274900           -1.990432            0.159641
H               -0.098182           -1.632391            1.044418
H                4.153278           -4.541282           -0.405777
H                6.353450           -2.656070           -1.141812
H                5.756972            0.006333           -0.089603
O                0.454704            3.142877            0.144878
C                0.623805            2.482961            1.380602
C                1.529780            1.246614            1.270521
C                2.811733            1.536191            0.495856
C                2.516724            2.349304           -0.760153
C                1.694378            3.569043           -0.397661
H                1.059636            3.173776            2.113790
H                1.005400            0.464086            0.714219
H                3.496173            2.094388            1.149578
H                3.455407            2.674717           -1.222317
H                2.248473            4.162950            0.344655
O                1.744258            1.585513           -1.674898
O                1.858692            0.815189            2.564155
O               -0.637764            2.181239            1.895894
C                1.388104            4.458495           -1.586536
H                0.841483            3.878787           -2.341543
H                0.752386            5.284618           -1.243620
O                2.632109            4.910039           -2.070541
H                2.491950            5.479889           -2.828445
H                2.273236            0.816337           -1.902898
H                1.090394            0.339269            2.908001
O               -3.478303            0.681020            0.166985
C               -4.010061           -0.137494            1.202973
C               -2.869816           -0.811189            1.943758
C               -1.801451            0.172507            2.382800
C               -1.407899            1.158479            1.294919
C               -2.633334            1.752458            0.598380
H               -4.629807            0.478711            1.873548
H               -2.415561           -1.517318            1.233875
H               -2.166093            0.739297            3.249269
H               -3.183877            2.406616            1.288538
H               -0.839077            0.622139            0.528971
O               -0.630707           -0.560967            2.745201
O               -3.296450           -1.482738            3.102250
O               -4.728003           -1.143940            0.594794
C               -2.275403            2.524137           -0.661753
H               -3.204555            2.762644           -1.186714
H               -1.778140            3.454780           -0.385785
O               -1.469541            1.750637           -1.533896
H               -0.542128            1.976407           -1.369563
H               -0.865565           -1.139602            3.480091
H               -3.873220           -2.208129            2.846415
C               -6.001690           -0.781310            0.037545
H               -6.781277           -1.167098            0.702000
H               -6.086228            0.310004           -0.004418
C               -6.126575           -1.376289           -1.349526
H               -7.171658           -1.268124           -1.655708
H               -5.951382           -2.456390           -1.276483
C               -5.202065           -0.737101           -2.403385
H               -5.807796           -0.348256           -3.226139
H               -4.705465            0.140444           -1.972787
C               -4.163667           -1.680754           -3.012860
H               -4.665609           -2.573371           -3.401620
H               -3.695947           -1.200495           -3.881844
C               -3.074727           -2.154048           -2.066481
H               -2.430226           -2.891054           -2.550151
H               -3.494891           -2.601366           -1.162858
N               -2.210862           -1.031919           -1.609563
H               -1.427652           -1.368391           -1.009930
H               -2.743142           -0.351669           -1.027984
H               -1.820480           -0.478152           -2.372903
