72
b-a13
C        3.609765111     -0.858811791      1.647595402
H        3.740981797     -1.063062688      2.715665376
O        4.735785016     -0.795149802      0.849526583
H        4.967306798     -1.683307833      0.562468537
C        2.258849111     -2.317298791      0.255845402
H        1.399881111     -2.969922791      0.438213402
O        2.698806111     -1.948789791      1.561270402
C        2.941722111      0.392725209      1.102079402
H        3.622824111      1.243852209      1.155704402
N        1.774543111      0.634222209      1.944773402
H        1.507463111     -0.135724791      2.546511402
C        0.976081111      1.655967209      1.867011402
O        1.315729111      2.641977209      1.113132402
C       -0.296324889      1.679863209      2.631306402
H       -0.357905889      2.602312209      3.213701402
H       -0.385768889      0.823099209      3.298688402
H       -1.125333889      1.668076209      1.915190402
C        2.541029111      0.168076209     -0.373127598
H        1.921118111      1.006273209     -0.685409598
O        3.670866111      0.177570209     -1.193355598
H        4.101546111     -0.692853791     -1.170377598
C        1.702190111     -1.115527791     -0.521898598
H        1.653585111     -1.364393791     -1.590536598
O        0.381038111     -0.928914791     -0.012480598
C        3.266806111     -3.175339791     -0.485750598
H        2.776002111     -3.590572791     -1.375466598
H        3.553748111     -4.000794791      0.174761402
O        4.413216111     -2.415305791     -0.849307598
H        5.033030111     -2.962139791     -1.338064598
C       -0.533331889     -0.288472791     -0.820281598
H       -0.400700889     -0.574249791     -1.878940598
C       -1.226775889      1.922785209     -1.425613598
H       -1.150521889      1.676278209     -2.497260598
O       -0.340521889      1.111045209     -0.675046598
C       -1.926780889     -0.662669791     -0.331378598
H       -1.918491889     -0.428902791      0.741476402
O       -2.132860889     -2.028873791     -0.556153598
H       -2.952692889     -2.283088791     -0.112334598
C       -2.962106889      0.186397209     -1.069492598
H       -2.928234889     -0.115228791     -2.123711598
O       -4.300694889     -0.059878791     -0.671807598
C       -2.668640889      1.681751209     -0.996426598
H       -3.337080889      2.199084209     -1.696915598
O       -2.862487889      2.192381209      0.316659402
H       -3.821454889      2.213515209      0.510146402
C       -0.767995889      3.361689209     -1.255860598
H       -1.431995889      4.027736209     -1.817039598
H        0.243794111      3.475047209     -1.649316598
O       -0.722524889      3.763728209      0.112695402
H       -1.583165889      3.512238209      0.494204402
C       -4.587201889     -0.358574791      0.664519402
H       -3.752736889     -0.115921791      1.325084402
C       -5.922217889     -2.231285791      0.030993402
H       -5.719537889     -1.989376791     -1.019052598
O       -4.818084889     -1.737280791      0.826721402
C       -5.811592889      0.435900209      1.086272402
H       -5.987776889      0.227443209      2.150749402
O       -5.525776889      1.812013209      0.920210402
H       -6.361063889      2.292987209      0.948537402
C       -7.030843889     -0.000886791      0.292540402
H       -6.873550889      0.250923209     -0.761019598
O       -8.160953889      0.718644209      0.723989402
H       -8.510879889      0.260145209      1.498376402
C       -7.206024889     -1.513557791      0.437552402
H       -8.018050889     -1.838250791     -0.220579598
O       -7.622141889     -1.821322791      1.756529402
H       -6.842872889     -1.943222791      2.307408402
C       -5.969351889     -3.727607791      0.220244402
H       -6.148382889     -3.991038791      1.264726402
H       -5.028017889     -4.180852791     -0.097800598
H       -6.776593889     -4.152920791     -0.380492598
H        0.501506111      3.183183209      0.818132402
