84
input.log
O                2.731310           -1.271787            1.081072
C                3.827586           -0.390975            0.865454
C                4.992668           -1.198631            0.298178
C                4.576909           -1.869947           -1.000973
C                3.331145           -2.721688           -0.778577
C                2.249762           -1.875628           -0.130293
H                4.073869            0.013546            1.855711
H                5.215802           -1.984603            1.029901
H                4.353254           -1.089795           -1.741451
H                2.962650           -3.050112           -1.763511
H                1.980022           -1.078172           -0.836056
O                3.599797           -3.828189            0.045519
O                5.582285           -2.739186           -1.466145
O                6.127572           -0.410708            0.019900
O                3.493193            0.616755           -0.026866
C                1.005453           -2.664282            0.212080
H                0.773394           -3.335222           -0.619369
H                1.181382           -3.280538            1.097110
O               -0.126477           -1.814533            0.397029
H               -0.210480           -1.533891            1.328493
H                4.403932           -4.240718           -0.289334
H                6.410953           -2.250277           -1.483929
H                6.667718           -0.328257            0.808264
O                0.254441            3.190606            0.148923
C                0.471882            2.480570            1.356601
C                1.386849            1.268595            1.137457
C                2.675509            1.684728            0.414666
C                2.306453            2.448640           -0.848782
C                1.454874            3.657116           -0.464542
H                0.935163            3.150969            2.092243
H                0.881879            0.542100            0.494090
H                3.258172            2.335653            1.084026
H                3.232373            2.782399           -1.336127
H                2.010025            4.283241            0.251625
O                1.581107            1.564949           -1.683793
O                1.611058            0.723626            2.422643
O               -0.765312            2.163295            1.904774
C                1.068183            4.542526           -1.637764
H                0.399114            5.334326           -1.283728
H                1.973827            5.016196           -2.025547
O                0.492105            3.828209           -2.719884
H               -0.446083            3.684440           -2.556420
H                1.282167            2.094093           -2.438472
H                1.943083           -0.176874            2.259819
O               -3.537886            0.549993            0.167606
C               -4.060328           -0.349450            1.153850
C               -2.940326           -0.894582            2.025706
C               -1.912255            0.156594            2.430449
C               -1.556349            1.135687            1.322149
C               -2.823734            1.677641            0.667409
H               -4.815136            0.184034            1.753302
H               -2.425387           -1.646769            1.409377
H               -2.312212            0.732685            3.276165
H               -3.437190            2.215891            1.404466
H               -0.992828            0.603906            0.550699
O               -0.770514           -0.580760            2.839563
O               -3.530910           -1.489395            3.147993
O               -4.586650           -1.416938            0.472609
C               -2.560181            2.595424           -0.512317
H               -3.499639            2.755329           -1.045540
H               -2.197958            3.556181           -0.135767
O               -1.629435            2.044433           -1.435874
H               -0.749880            2.224428           -1.058260
H               -0.049245            0.041657            3.045853
H               -2.839540           -1.906783            3.669408
C               -5.746539           -1.160324           -0.323249
H               -6.442485           -1.978871           -0.116145
H               -6.217565           -0.224705           -0.000919
C               -5.421816           -1.110345           -1.806497
H               -4.748820           -0.267213           -2.005132
H               -6.356895           -0.866518           -2.324077
C               -4.881129           -2.414491           -2.398251
H               -5.525892           -3.240022           -2.075837
H               -4.986523           -2.366274           -3.488783
C               -3.429425           -2.796063           -2.087402
H               -3.286401           -2.935350           -1.011338
H               -3.235139           -3.768674           -2.548556
C               -2.388354           -1.813105           -2.623993
H               -2.794797           -1.217166           -3.445076
H               -1.502057           -2.328405           -2.998745
N               -1.917258           -0.861161           -1.578547
H               -2.694689           -0.456088           -1.020918
H               -1.448506           -0.034967           -1.963000
H               -1.269131           -1.307701           -0.897405
