84
input.log
O                4.252485           -0.959395            0.589726
C                3.538168            0.110584            1.125539
C                4.191050            1.433835            0.734953
C                4.527631            1.526968           -0.753660
C                5.249245            0.273594           -1.235783
C                4.364703           -0.898323           -0.830145
H                3.568622           -0.028444            2.212331
H                5.127716            1.496008            1.301149
H                3.592019            1.618621           -1.315720
H                5.331454            0.314881           -2.330733
H                3.377543           -0.690048           -1.262803
O                6.524986            0.293679           -0.628005
O                5.254602            2.708289           -0.987544
O                3.331088            2.509630            1.092480
O                2.212652            0.128166            0.663002
C                4.757482           -2.271290           -1.308837
H                5.107631           -2.212702           -2.347706
H                5.555628           -2.678730           -0.677931
O                3.583212           -3.076308           -1.222955
H                3.804538           -3.991474           -1.408306
H                7.130154           -0.287273           -1.092597
H                6.179555            2.514762           -0.790430
H                3.805456            3.319279            0.868648
O               -1.128241           -2.247063            1.245344
C               -0.496319           -2.353752           -0.005367
C                0.525037           -1.239303           -0.226383
C                1.453256           -1.040839            0.953029
C                0.626738           -0.863974            2.220193
C               -0.308903           -2.065010            2.383462
H               -0.011118           -3.336057           -0.112379
H               -0.045956           -0.318078           -0.338372
H                2.125749           -1.900978            1.063482
H                1.291063           -0.825507            3.095029
H                0.309442           -2.958926            2.566372
O               -0.100518            0.352119            2.122911
O                1.194619           -1.417000           -1.451313
O               -1.485441           -2.332944           -0.981293
C               -1.286057           -1.889664            3.540566
H               -1.896995           -2.793514            3.633743
H               -0.733733           -1.752747            4.474527
O               -2.099386           -0.746902            3.349543
H               -2.792639           -0.951439            2.680649
H               -0.951123            0.212474            2.608191
H                1.812368           -2.164606           -1.404239
O               -4.776100           -0.851777           -1.389482
C               -4.413285            0.476298           -1.542858
C               -3.250279            0.638626           -2.522256
C               -2.160607           -0.422359           -2.302301
C               -2.352627           -1.195469           -1.000235
C               -3.774972           -1.750535           -0.885323
H               -5.297465            0.980511           -1.948786
H               -2.792221            1.618160           -2.360598
H               -2.234494           -1.147419           -3.124521
H               -3.827673           -2.644112           -1.517112
H               -2.145612           -0.544366           -0.146741
O               -0.905262            0.234676           -2.355452
O               -3.723223            0.657942           -3.847389
O               -4.084697            1.023071           -0.273661
C               -4.143972           -2.161089            0.530461
H               -5.175411           -2.531318            0.519261
H               -3.480815           -2.966055            0.851292
O               -4.013637           -1.108962            1.471648
H               -4.289580           -0.281441            1.044540
H               -0.212976           -0.428859           -2.487811
H               -4.208177           -0.155905           -4.015027
C               -4.428306            2.395077           -0.108812
H               -4.036782            2.980076           -0.951999
H               -5.520457            2.502884           -0.110389
C               -3.845905            2.872084            1.204542
H               -4.305482            2.302897            2.019604
H               -4.143291            3.917168            1.348990
C               -2.328083            2.739040            1.294790
H               -2.014046            3.007275            2.310543
H               -2.064280            1.685571            1.153919
C               -1.573533            3.607817            0.292131
H               -1.766106            3.275358           -0.735665
H               -1.936003            4.640318            0.350924
C               -0.074192            3.649395            0.523254
H                0.159601            3.971172            1.541349
H                0.411143            4.339968           -0.170155
N                0.560709            2.317972            0.342955
H                0.233545            1.607509            1.041211
H                1.588151            2.357985            0.482941
H                0.371365            1.933307           -0.585594
