72
input.log
C                1.384217            1.836863           -0.195613
H                1.964437            1.418252           -1.047650
O                2.163419            2.655211            0.620946
H                2.870000            2.091586            1.139992
C                0.249453           -0.299286            0.007245
H               -0.237581           -0.832691            0.862987
O                0.930257            0.775753            0.679355
C                0.133448            2.666597           -0.660898
H                0.280870            2.975517           -1.737590
N                0.003592            3.889157            0.173031
H                0.795831            4.033515            0.843998
C               -1.001331            4.795253            0.086939
O               -2.041484            4.646896           -0.665795
C               -0.956689            6.041117            0.889951
H               -0.955689            5.856552            1.980352
H               -1.842804            6.682549            0.688555
H               -0.072286            6.668188            0.666968
C               -1.114525            1.764602           -0.561392
H               -1.598603            1.823851            0.443102
O               -2.033689            2.302015           -1.558385
H               -2.983809            1.873832           -1.402934
C               -0.811473            0.297506           -0.949656
H               -0.515263            0.226245           -2.030260
O               -2.009047           -0.474138           -0.977042
C                1.258282           -1.227251           -0.706867
H                1.069349           -1.332011           -1.792030
H                1.274142           -2.236489           -0.248787
O                2.573244           -0.654314           -0.664722
C               -2.829753           -0.513701            0.207747
H               -2.438543            0.115112            1.031841
C               -3.829137           -2.507138            1.284131
H               -3.722363           -2.208293            2.354622
O               -2.717418           -1.884963            0.584186
C               -4.220029           -0.093384           -0.301682
H               -4.390339           -0.440970           -1.352105
O               -4.156568            1.356289           -0.299502
H               -5.079749            1.713489           -0.436913
C               -5.350653           -0.572928            0.631167
H               -5.341981           -0.046944            1.613943
O               -6.591449           -0.199222            0.061288
H               -6.859803           -0.847531           -0.652304
C               -5.226716           -2.109122            0.763870
H               -6.016230           -2.521095            1.439157
O               -5.499585           -2.553430           -0.562596
H               -5.318765           -3.547880           -0.653460
C               -3.519970           -4.003465            1.096601
H               -4.181529           -4.645727            1.711818
H               -2.459699           -4.219500            1.334623
O               -3.796435           -4.418951           -0.245525
H               -3.197953           -3.927099           -0.868995
C                3.268183           -0.816403            0.597448
H                2.602543           -0.592616            1.464464
C                4.661073           -2.776018           -0.012801
H                4.866707           -3.669089            0.633426
O                3.605661           -2.166934            0.777880
C                4.472100            0.134632            0.465602
H                4.506594            0.643425           -0.524416
O                4.235668            1.142123            1.474681
H                5.071965            1.668264            1.608975
C                5.792835           -0.603094            0.777664
H                5.876663           -0.821088            1.870201
O                6.860694            0.292633            0.512567
H                7.185857            0.183966           -0.426750
C                5.920431           -1.878550           -0.087858
H                6.834816           -2.455166            0.208493
O                6.266433           -1.455674           -1.407416
H                5.474236           -1.161602           -1.913325
C                4.125280           -3.190636           -1.368937
H                3.662700           -2.350918           -1.905224
H                3.352105           -3.964612           -1.267123
H                4.919269           -3.608331           -2.006925
H               -2.168009            3.651292           -1.257272
