72
input.log
C                3.743463            1.231004            1.703574
H                3.331428            1.976737            2.414484
O                5.032443            0.811787            2.090662
H                5.724854            1.427880            1.730282
C                2.803407            2.207210           -0.358721
H                3.275508            2.297433           -1.376751
O                3.964102            1.817689            0.408314
C                2.859912           -0.037107            1.582913
H                2.696044           -0.484110            2.601158
N                3.512723           -1.001187            0.656498
H                3.835695           -0.570837           -0.246197
C                3.576520           -2.313807            0.854516
O                3.075121           -2.725618            2.037789
C                4.098099           -3.265135           -0.140442
H                3.346127           -3.429844           -0.960129
H                4.338425           -4.263491            0.263359
H                5.019217           -2.922970           -0.653417
C                1.493877            0.363845            0.936389
H                0.866871           -0.557033            0.759256
O                0.747435            1.096039            1.874550
H                0.924645            2.102464            1.809286
C                1.719912            1.112515           -0.399271
H                0.737282            1.515765           -0.779346
O                2.268352            0.168388           -1.344341
C                2.303879            3.576337            0.134539
H                2.217959            4.298997           -0.698889
H                2.990074            3.999471            0.898940
O                1.046494            3.493483            0.815575
H                0.300727            3.429827            0.148124
C                1.422571           -0.540443           -2.261290
H                2.181247           -0.891073           -3.010423
C               -0.794021            0.554408           -2.771272
H               -1.180926            0.309747           -3.802176
O                0.634460            0.372128           -2.977384
C                0.691207           -1.700631           -1.545727
H                0.724181           -1.573707           -0.429472
O                1.468589           -2.873028           -1.819271
H                0.887707           -3.603575           -2.152943
C               -0.769955           -1.819155           -2.022028
H               -0.840099           -2.106227           -3.102842
O               -1.425739           -2.886781           -1.382935
H               -1.402127           -2.797821           -0.374541
C               -1.431327           -0.434339           -1.778614
H               -2.537951           -0.466350           -1.889779
O               -1.072850           -0.024319           -0.437268
C               -1.008132            2.062720           -2.542429
H               -2.004753            2.368132           -2.917186
H               -0.214424            2.632917           -3.076032
O               -0.872219            2.500702           -1.193824
H               -1.622654            2.134467           -0.632509
C               -2.055853            0.024531            0.579797
H               -1.443617            0.341664            1.461803
C               -4.020669            1.443613            1.028463
H               -3.554332            1.864174            1.950760
O               -2.932092            1.080042            0.130739
C               -2.902054           -1.243883            0.783238
H               -3.361424           -1.606110           -0.169607
O               -1.985834           -2.250386            1.250193
H               -2.505803           -2.968286            1.711038
C               -3.995341           -0.980345            1.846640
H               -3.556708           -0.819731            2.860720
O               -4.764355           -2.159254            2.003610
H               -5.416685           -2.253872            1.253307
C               -4.878288            0.206102            1.393503
H               -5.624687            0.469570            2.178934
O               -5.569022           -0.338554            0.259957
H               -6.327391            0.233656            0.007752
C               -4.782628            2.493431            0.245579
H               -5.140054            2.101803           -0.718231
H               -4.140411            3.355529            0.007175
H               -5.644870            2.880339            0.803647
H                3.165320           -3.720983            2.187895
