84
input.log
O                4.181454           -0.909283            0.674364
C                3.434754            0.198960            1.063745
C                4.092616            1.476420            0.568371
C                4.285652            1.446293           -0.941960
C                5.084890            0.205926           -1.312437
C                4.374531           -1.022418           -0.740361
H                3.413536            0.168423            2.159298
H                5.077181            1.531019            1.043998
H                3.307708            1.414091           -1.433044
H                5.108413            0.102839           -2.408607
H                3.391688           -1.092240           -1.227702
O                6.378875            0.436551           -0.805282
O                4.915758            2.640558           -1.348823
O                3.316278            2.612954            0.941792
O                2.122996            0.174986            0.539792
C                5.090500           -2.327652           -1.001867
H                4.560922           -3.127145           -0.470323
H                5.042529           -2.532150           -2.079580
O                6.436718           -2.231358           -0.563696
H                6.896556           -3.056380           -0.728996
H                6.823084           -0.417407           -0.702913
H                5.866059            2.504325           -1.239628
H                3.779940            3.374299            0.569592
O               -1.199090           -2.132482            1.408090
C               -0.585948           -2.354054            0.163825
C                0.350927           -1.195965           -0.207207
C                1.345029           -0.952848            0.910167
C                0.608332           -0.718000            2.223838
C               -0.331155           -1.894751            2.499333
H               -0.010821           -3.290802            0.165268
H               -0.255138           -0.285664           -0.310655
H                1.996998           -1.830465            1.008850
H                1.333001           -0.662974            3.048100
H                0.287684           -2.784801            2.698898
O               -0.103203            0.509463            2.137850
O                1.037867           -1.472635           -1.395352
O               -1.597877           -2.556474           -0.771997
C               -1.245060           -1.648789            3.693538
H               -1.870391           -2.533112            3.854831
H               -0.642645           -1.489348            4.592178
O               -2.041178           -0.493335            3.502483
H               -2.750563           -0.690244            2.848602
H               -0.926468            0.400775            2.678506
H                0.387833           -1.357108           -2.104025
O               -4.884145           -1.042913           -1.210195
C               -4.490896            0.238073           -1.559315
C               -3.270171            0.266451           -2.501872
C               -2.538977           -1.061748           -2.427084
C               -2.494664           -1.478632           -0.959825
C               -3.917080           -1.907334           -0.590205
H               -5.346908            0.682667           -2.077527
H               -2.576657            1.041978           -2.138246
H               -3.112094           -1.806948           -2.990433
H               -4.083188           -2.895368           -1.035644
H               -2.209467           -0.628332           -0.331968
O               -1.247028           -0.916326           -3.017358
O               -3.722749            0.571053           -3.794826
O               -4.205925            0.964593           -0.371465
C               -4.198660           -2.032675            0.895248
H               -5.246705           -2.333066            1.011314
H               -3.559437           -2.816624            1.305245
O               -3.941670           -0.853124            1.632262
H               -4.241100           -0.090063            1.110918
H               -1.151315           -1.594944           -3.689036
H               -2.964339            0.604343           -4.384286
C               -4.406060            2.370499           -0.454888
H               -3.862295            2.776062           -1.319736
H               -5.472533            2.577956           -0.609249
C               -3.923633            2.987056            0.841565
H               -4.475543            2.522613            1.665657
H               -4.203902            4.046711            0.843041
C               -2.422761            2.845842            1.093945
H               -2.218043            3.135319            2.131394
H               -2.145389            1.788656            1.008550
C               -1.567092            3.706246            0.166075
H               -1.641844            3.359410           -0.873404
H               -1.954373            4.731462            0.164511
C               -0.102559            3.792849            0.559418
H                0.006148            4.118726            1.597079
H                0.427128            4.508818           -0.073531
N                0.600828            2.491775            0.444771
H                0.258163            1.761478            1.118183
H                1.628276            2.568724            0.627391
H                0.510777            2.095745           -0.489674
