84
input.log
O                2.638891           -1.507836            1.057380
C                3.771668           -0.705318            0.797333
C                4.874659           -1.537820            0.158106
C                4.362813           -2.274090           -1.073776
C                3.109435           -3.076661           -0.737882
C                2.090176           -2.150599           -0.099423
H                4.094831           -0.322619            1.771495
H                5.182825           -2.283006            0.896107
H                4.106711           -1.535933           -1.851532
H                2.683055           -3.459398           -1.679514
H                1.825057           -1.380623           -0.837682
O                3.386907           -4.127333            0.149001
O                5.321013           -3.184855           -1.551595
O                6.013329           -0.768255           -0.139961
O                3.464553            0.355194           -0.067308
C                0.815081           -2.846370            0.325788
H                0.531395           -3.566440           -0.446869
H                0.982903           -3.401489            1.251942
O               -0.260036           -1.921356            0.464398
H               -0.356196           -1.607357            1.385343
H                4.157220           -4.594136           -0.194160
H                6.183488           -2.756829           -1.528941
H                5.724565            0.008049           -0.631648
O                0.486342            3.170341            0.228020
C                0.608422            2.396923            1.398847
C                1.452616            1.138501            1.151879
C                2.786062            1.487762            0.480633
C                2.544208            2.406145           -0.711297
C                1.741322            3.611134           -0.261105
H                1.085522            2.993257            2.188893
H                0.919471            0.477336            0.460433
H                3.440031            1.982361            1.212432
H                3.500404            2.745296           -1.124090
H                2.298639            4.129904            0.533714
O                1.772923            1.739123           -1.700286
O                1.599748            0.524694            2.416046
O               -0.661884            2.124789            1.890023
C                1.473674            4.598575           -1.379310
H                0.906563            4.099274           -2.175314
H                0.870487            5.420834           -0.974929
O                2.736950            5.034014           -1.827377
H                2.622920            5.688261           -2.518699
H                2.313092            1.032759           -2.062521
H                1.889127           -0.385566            2.235972
O               -3.484098            0.711911            0.055576
C               -4.119085           -0.074336            1.069587
C               -3.074209           -0.730207            1.954135
C               -1.973888            0.233207            2.372696
C               -1.482911            1.149795            1.262204
C               -2.635459            1.777665            0.487893
H               -4.793698            0.566476            1.657161
H               -2.617684           -1.528712            1.349022
H               -2.350608            0.859323            3.192911
H               -3.198710            2.476661            1.121244
H               -0.912827            0.553946            0.545108
O               -0.910113           -0.588065            2.839471
O               -3.735753           -1.269493            3.064691
O               -4.781650           -1.073860            0.399085
C               -2.188302            2.481516           -0.783742
H               -3.080498            2.713151           -1.372410
H               -1.685999            3.413642           -0.523632
O               -1.348315            1.649357           -1.569837
H               -0.428435            1.916777           -1.435281
H               -0.146973           -0.019970            3.049009
H               -3.083606           -1.696235            3.627723
C               -6.013706           -0.707341           -0.232571
H               -6.836914           -1.049291            0.402893
H               -6.071540            0.383086           -0.326558
C               -6.073989           -1.354228           -1.600435
H               -7.086542           -1.204990           -1.987705
H               -5.961741           -2.437839           -1.475154
C               -5.040561           -0.805413           -2.602536
H               -5.556879           -0.454734           -3.500225
H               -4.558203            0.084661           -2.181208
C               -3.980197           -1.809529           -3.057892
H               -4.472985           -2.704465           -3.453112
H               -3.411290           -1.387767           -3.896636
C               -3.008025           -2.272314           -1.986968
H               -2.340462           -3.044943           -2.374745
H               -3.531010           -2.667814           -1.113867
N               -2.160646           -1.153352           -1.490138
H               -1.432963           -1.479794           -0.822583
H               -2.727259           -0.441704           -0.977758
H               -1.700058           -0.628897           -2.235261
