84
input.log
O                4.284926           -0.924862            0.573652
C                3.531780            0.124712            1.119993
C                4.165998            1.465843            0.751467
C                4.578490            1.571697           -0.719287
C                5.291061            0.308101           -1.202649
C                4.370583           -0.846498           -0.857903
H                3.557410           -0.032326            2.204696
H                5.072695            1.556871            1.364193
H                3.672035            1.704194           -1.321658
H                5.440680            0.378836           -2.284381
H                3.381147           -0.606767           -1.262863
O                6.574627            0.196935           -0.624685
O                5.349056            2.736019           -0.889371
O                3.269359            2.519576            1.075442
O                2.218659            0.117303            0.643528
C                4.738793           -2.211760           -1.373886
H                5.069909           -2.126746           -2.415591
H                5.548554           -2.645445           -0.777558
O                3.556297           -3.007024           -1.280905
H                3.758975           -3.912150           -1.527596
H                6.479295           -0.214814            0.241264
H                6.268651            2.500828           -0.712466
H                3.734540            3.341014            0.876472
O               -1.100817           -2.302705            1.164959
C               -0.475692           -2.357307           -0.092933
C                0.539335           -1.231583           -0.274309
C                1.472358           -1.068687            0.905922
C                0.646204           -0.933935            2.178147
C               -0.280043           -2.147473            2.306211
H                0.008370           -3.333970           -0.244390
H               -0.041154           -0.312946           -0.340436
H                2.153249           -1.925092            0.986565
H                1.309540           -0.916158            3.054470
H                0.345670           -3.041391            2.461915
O               -0.089357            0.279273            2.114976
O                1.199794           -1.349410           -1.510369
O               -1.470061           -2.294173           -1.062071
C               -1.256292           -2.013265            3.469707
H               -1.861131           -2.923440            3.536927
H               -0.703180           -1.900489            4.406421
O               -2.077038           -0.870615            3.313628
H               -2.772329           -1.061103            2.642797
H               -0.937042            0.119380            2.599145
H                1.828555           -2.090188           -1.496822
O               -4.768375           -0.822111           -1.414734
C               -4.420961            0.515477           -1.507521
C               -3.255569            0.732550           -2.472945
C               -2.146483           -0.315550           -2.285569
C               -2.340439           -1.159013           -1.027856
C               -3.759167           -1.730093           -0.945469
H               -5.308780            1.026399           -1.896539
H               -2.817461            1.714571           -2.275563
H               -2.189893           -0.997638           -3.144995
H               -3.800875           -2.596682           -1.614402
H               -2.141968           -0.552694           -0.140012
O               -0.901218            0.369028           -2.286143
O               -3.722113            0.788220           -3.799198
O               -4.104195            1.010853           -0.215012
C               -4.125469           -2.204290            0.451263
H               -5.154321           -2.580617            0.424292
H               -3.456654           -3.017722            0.736960
O               -4.001034           -1.193045            1.437294
H               -4.293041           -0.351857            1.049710
H               -0.199548           -0.270707           -2.475234
H               -4.202052           -0.022861           -3.993081
C               -4.476805            2.367115            0.011083
H               -4.115657            2.993578           -0.815517
H               -5.570852            2.448781            0.034187
C               -3.877645            2.806211            1.330158
H               -4.315268            2.204771            2.133993
H               -4.183335            3.842450            1.514918
C               -2.357144            2.685870            1.386356
H               -2.022980            2.931997            2.401165
H               -2.089186            1.638248            1.213725
C               -1.632453            3.583958            0.388162
H               -1.865888            3.290311           -0.642629
H               -1.982113            4.616715            0.497181
C               -0.125434            3.602376            0.561400
H                0.153828            3.890254            1.578174
H                0.340746            4.306893           -0.130998
N                0.483451            2.268513            0.315907
H                0.187002            1.549753            1.018358
H                1.514093            2.300142            0.408697
H                0.237489            1.905405           -0.610026
