72
input.log
C               -3.654468            1.518264           -1.286160
H               -3.303032            2.568004           -1.333519
O               -4.824678            1.318130           -2.060685
H               -5.623293            1.666544           -1.579986
C               -3.091654            1.125474            1.073304
H               -3.646752            0.530168            1.849958
O               -4.095331            1.171911            0.036169
C               -2.615773            0.479870           -1.793000
H               -2.252281            0.764606           -2.821175
N               -3.324632           -0.829088           -1.872119
H               -4.364047           -0.728066           -1.912811
C               -2.765898           -2.042440           -1.798618
O               -1.447626           -2.100847           -1.848898
C               -3.577560           -3.277557           -1.714662
H               -4.602441           -3.184114           -2.119607
H               -3.701132           -3.612932           -0.663592
H               -3.119141           -4.123742           -2.261716
C               -1.407370            0.494111           -0.812716
H               -0.665432           -0.307122           -1.088251
O               -0.690241            1.690862           -1.047450
H               -1.084011            2.473817           -0.521029
C               -1.809975            0.371305            0.673220
H               -0.942281            0.704162            1.318837
O               -2.109119           -1.012970            0.954044
C               -2.838768            2.564211            1.560822
H               -2.777660            2.612742            2.663143
H               -3.649753            3.240520            1.214334
O               -1.651209            3.131536            0.989032
H               -0.877397            2.974223            1.603248
C               -1.130039           -1.850807            1.561532
H               -1.756116           -2.745817            1.820525
C                0.552303           -0.790022            3.138281
H                0.772167           -1.391642            4.068163
O               -0.757177           -1.324401            2.814860
C                0.037269           -2.165527            0.610725
H                0.170979           -1.376383           -0.178933
O               -0.333012           -3.400370           -0.081182
H                0.524304           -3.871465           -0.342824
C                1.347812           -2.401384            1.384503
H                1.270192           -3.258424            2.099439
O                2.324625           -2.825720            0.463174
H                2.729983           -2.030437           -0.033520
C                1.668201           -1.074597            2.113563
H                2.668039           -1.114110            2.601900
O                1.637809           -0.032106            1.114888
C                0.358805            0.677275            3.566759
H                1.193910            1.004036            4.216100
H               -0.604853            0.775872            4.116272
O                0.208392            1.604350            2.496741
H                1.066338            1.735418            1.997800
C                2.886220            0.557590            0.712328
H                3.473044            0.898839            1.589959
C                4.530031           -0.218228           -0.990396
H                5.419323            0.249806           -0.502037
O                3.605341           -0.513809            0.099159
C                2.401119            1.681644           -0.223828
H                1.383751            1.445807           -0.649537
O                2.273138            2.787136            0.687178
H                2.027694            3.606412            0.185953
C                3.396120            2.033992           -1.347134
H                4.224735            2.682551           -0.968743
O                2.746093            2.858078           -2.298777
H                2.085791            2.327161           -2.823239
C                3.928695            0.752915           -2.027152
H                4.688720            1.012152           -2.801606
O                2.771219            0.197243           -2.671297
H                3.042651           -0.349332           -3.440983
C                4.852097           -1.585845           -1.557836
H                3.999673           -2.033339           -2.085174
H                5.130516           -2.290051           -0.754693
H                5.702267           -1.549475           -2.252474
H               -1.000837           -2.996401           -1.342206
