72
input.log
C               -4.761405           -0.880041           -1.533168
H               -5.755477           -1.084089           -1.080827
O               -4.797434           -0.856700           -2.943706
H               -4.978383           -1.763275           -3.305088
C               -3.539749           -2.211931            0.109268
H               -2.651759           -2.897935            0.009115
O               -3.851131           -1.977483           -1.268718
C               -4.109049            0.448828           -1.081089
H               -4.808849            1.312794           -1.267947
N               -2.862932            0.630608           -1.876509
H               -2.688203           -0.108000           -2.579496
C               -1.972042            1.616747           -1.656376
O               -2.315926            2.537556           -0.803992
C               -0.673293            1.666474           -2.369419
H               -0.552464            2.608890           -2.937243
H               -0.508719            0.853801           -3.095044
H                0.173496            1.619464           -1.646695
C               -3.798088            0.380986            0.443750
H               -3.156007            1.260257            0.745772
O               -4.983035            0.596623            1.175958
H               -5.586095           -0.202280            1.162066
C               -3.115102           -0.937356            0.872917
H               -3.244611           -1.076012            1.972306
O               -1.698387           -0.828340            0.548109
C               -4.703338           -2.957355            0.784544
H               -4.430259           -3.332264            1.787684
H               -5.041082           -3.799399            0.145832
O               -5.799029           -2.025414            0.903850
H               -6.544969           -2.439878            1.393356
C               -0.856969           -0.255225            1.533373
H               -1.116806           -0.551286            2.566814
C               -0.168597            2.054280            1.991837
H               -0.186176            1.847617            3.094714
O               -1.107694            1.168510            1.359506
C                0.569187           -0.646353            1.080304
H                0.588354           -0.756415           -0.033208
O                0.793741           -1.911096            1.705093
H                1.571930           -2.359256            1.270429
C                1.650649            0.329249            1.584904
H                1.922490            0.075096            2.643920
O                2.920363            0.213326            0.923097
C                1.258141            1.818536            1.456499
H                1.999045            2.455324            1.999001
O                1.285588            2.204998            0.070181
H                2.260967            2.180423           -0.257420
C               -0.713415            3.463163            1.736713
H               -0.201886            4.222507            2.361925
H               -1.813097            3.510855            1.905239
O               -0.562883            3.927135            0.364229
H                0.364565            3.644974            0.004963
C                3.000752           -0.354314           -0.392363
H                2.035765           -0.347002           -0.940097
C                4.541273           -2.012118            0.533414
H                4.359379           -1.631016            1.565161
O                3.317274           -1.725676           -0.233380
C                4.148191            0.398199           -1.098445
H                4.260368            0.043058           -2.150990
O                3.735444            1.770982           -1.183463
H                4.538626            2.359163           -1.163444
C                5.461524            0.225079           -0.301378
H                5.416749            0.778445            0.667793
O                6.510024            0.855836           -1.012082
H                6.894372            0.235364           -1.694603
C                5.749049           -1.285438           -0.098381
H                6.671626           -1.425798            0.520668
O                6.137650           -1.823479           -1.361467
H                5.348279           -2.112478           -1.878851
C                4.641786           -3.521180            0.475464
H                5.358641           -3.871135           -0.285140
H                3.671672           -3.977724            0.223274
H                4.963292           -3.947537            1.435429
H               -1.427791            3.204888           -0.403718
