84
input.log
O                4.211577           -0.810798            0.613698
C                3.248513            0.185930            0.738486
C                3.849797            1.566180            0.520005
C                4.588290            1.649683           -0.808690
C                5.632954            0.545119           -0.859500
C                4.936521           -0.797164           -0.615704
H                2.853859            0.091580            1.755343
H                4.573673            1.726862            1.326342
H                3.873710            1.530003           -1.629585
H                6.083771            0.514420           -1.863750
H                4.235050           -0.950299           -1.450950
O                6.589094            0.895961            0.110968
O                5.145975            2.935837           -0.944201
O                2.830620            2.556163            0.576099
O                2.199124            0.044938           -0.196520
C                5.872116           -1.987053           -0.614365
H                5.299729           -2.880698           -0.337017
H                6.256141           -2.118678           -1.634662
O                6.928779           -1.756691            0.300534
H                7.534816           -2.500094            0.297300
H                7.095565            0.104919            0.343981
H                5.987607            2.930327           -0.470154
H                3.248431            3.376624            0.282966
O               -1.015070           -2.556641            0.022593
C               -0.632945           -2.091202           -1.248290
C                0.316715           -0.913436           -1.112311
C                1.471335           -1.177872           -0.175984
C                0.903584           -1.561548            1.183311
C               -0.006645           -2.780881            0.989946
H               -0.177584           -2.888551           -1.850455
H               -0.273578           -0.120453           -0.651979
H                2.108883           -1.995764           -0.538531
H                1.715536           -1.863352            1.858769
H                0.629513           -3.631223            0.696116
O                0.214024           -0.445721            1.729753
O                0.731194           -0.510346           -2.400606
O               -1.789711           -1.732934           -1.931093
C               -0.758819           -3.141420            2.265355
H               -1.353747           -4.043474            2.089342
H               -0.045393           -3.353917            3.066727
O               -1.579008           -2.068407            2.688001
H               -2.391779           -2.055966            2.132485
H               -0.540694           -0.816033            2.250216
H                1.520671            0.029437           -2.284743
O               -5.133206           -0.576667           -1.121874
C               -4.847359            0.724879           -0.742266
C               -3.895724            1.402264           -1.728616
C               -2.731326            0.479911           -2.125428
C               -2.667612           -0.798302           -1.297031
C               -4.030195           -1.493271           -1.213250
H               -5.807190            1.252856           -0.748986
H               -3.472959            2.290761           -1.252407
H               -2.889651            0.186507           -3.170705
H               -4.174617           -2.044402           -2.148595
H               -2.319285           -0.568897           -0.286350
O               -1.518098            1.224060           -2.033317
O               -4.606371            1.875544           -2.846011
O               -4.299376            0.728518            0.566637
C               -4.113290           -2.487360           -0.066395
H               -5.118356           -2.923756           -0.065199
H               -3.381407           -3.280159           -0.228332
O               -3.831702           -1.906158            1.196154
H               -4.219372           -1.015776            1.212901
H               -0.844163            0.756943           -2.551234
H               -5.097369            1.144405           -3.234097
C               -4.688461            1.834836            1.377080
H               -4.557180            2.768727            0.815001
H               -5.752072            1.748426            1.631747
C               -3.831493            1.824547            2.625866
H               -4.064638            0.927968            3.209850
H               -4.119306            2.682691            3.243821
C               -2.332702            1.857135            2.335659
H               -1.785826            1.774124            3.281892
H               -2.082672            0.965807            1.749564
C               -1.882002            3.114191            1.599470
H               -2.398049            3.205215            0.636357
H               -2.160029            4.002640            2.177130
C               -0.388103            3.184417            1.350401
H                0.181994            3.125922            2.280698
H               -0.119634            4.116424            0.848674
N                0.084102            2.066185            0.489600
H                0.042785            1.149424            0.983754
H                1.087935            2.193665            0.259747
H               -0.473479            1.980756           -0.373202
