72
input.log
C                4.678752           -1.474726           -1.310513
H                5.674660           -1.470351           -0.852235
O                4.552972           -2.441254           -2.290496
H                5.196195           -2.266378           -2.983848
C                4.446347            0.908946           -1.047050
H                4.008195            1.720095           -1.636053
O                4.393962           -0.225245           -1.913545
C                3.637987           -1.763640           -0.235985
H                3.839461           -2.726138            0.237919
N                2.345064           -1.798703           -0.905587
H                2.333065           -1.424256           -1.846869
C                1.210675           -2.087697           -0.340111
O                1.230172           -2.552472            0.858193
C               -0.068171           -1.882157           -1.061818
H                0.090188           -1.563509           -2.091606
H               -0.634195           -1.112841           -0.526063
H               -0.647108           -2.808826           -1.048410
C                3.690723           -0.652802            0.822046
H                2.874099           -0.799395            1.533128
O                4.950857           -0.808479            1.439184
H                5.014739           -0.222604            2.197401
C                3.548063            0.734990            0.174765
H                3.828360            1.504236            0.906756
O                2.211715            0.958897           -0.267769
C                5.887649            1.288494           -0.693712
H                6.449278            1.408493           -1.627632
H                6.366661            0.504218           -0.106274
O                5.918098            2.452516            0.103909
H                5.816036            3.226283           -0.454492
C                1.296437            1.402776            0.660344
H                1.770529            2.075963            1.396447
C               -0.249405            0.532028            2.273972
H                0.120690            1.227819            3.046710
O                0.772162            0.259813            1.334162
C                0.186247            2.138760           -0.072068
H               -0.193226            1.467933           -0.858184
O                0.730515            3.308609           -0.617420
H               -0.008549            3.879129           -0.855608
C               -0.951512            2.470204            0.891282
H               -0.553702            3.148026            1.658026
O               -1.963341            3.187884            0.235487
H               -2.538162            2.567666           -0.242019
C               -1.435816            1.209945            1.597166
H               -2.188313            1.476102            2.351470
O               -1.995752            0.281466            0.670614
C               -0.565697           -0.775116            2.995653
H               -1.416649           -0.622716            3.668273
H                0.297219           -1.045166            3.608340
O               -0.807925           -1.890150            2.152154
H               -1.712588           -1.881480            1.776844
C               -3.370331            0.246267            0.530105
H               -3.863779            0.514376            1.481972
C               -5.160722            1.208102           -0.702961
H               -5.655147            1.490644            0.240848
O               -3.747759            1.153053           -0.479076
C               -3.763990           -1.153162            0.112302
H               -3.264771           -1.374000           -0.839988
O               -3.341061           -2.049132            1.123852
H               -3.840191           -2.868995            1.021577
C               -5.272047           -1.218792           -0.080560
H               -5.755647           -1.003562            0.879831
O               -5.654740           -2.523315           -0.435805
H               -5.529123           -2.603756           -1.389604
C               -5.700878           -0.170943           -1.101466
H               -6.797941           -0.121541           -1.114445
O               -5.203846           -0.630932           -2.344558
H               -5.679818           -0.213870           -3.065407
C               -5.401819            2.272549           -1.745942
H               -4.868551            2.029086           -2.668316
H               -5.044756            3.240957           -1.390526
H               -6.469911            2.363452           -1.960618
H                0.344143           -2.378414            1.347973
