72
input.log
C                0.202481            3.052870            1.425986
H                0.951447            3.879359            1.453149
O               -0.752818            3.182506            2.473731
H               -0.326238            3.105198            3.363327
C                0.315070            0.608179            1.569904
H               -0.377286            0.537530            2.436109
O                0.976919            1.904665            1.619662
C               -0.654645            3.022984            0.119059
H                0.035862            3.180768           -0.762905
N               -1.619183            4.155636            0.203021
H               -1.647301            4.639714            1.119892
C               -2.492146            4.518036           -0.785476
O               -2.651041            3.825489           -1.847456
C               -3.288411            5.759691           -0.643276
H               -3.869389            5.971052           -1.568418
H               -2.671430            6.659323           -0.461405
H               -4.033064            5.706542            0.172985
C               -1.358415            1.663708           -0.039297
H               -2.292137            1.609757            0.572816
O               -1.729948            1.553183           -1.462027
H               -2.613853            0.964288           -1.523566
C               -0.415812            0.467100            0.219629
H                0.331502            0.334568           -0.619883
O               -1.102993           -0.781753            0.164485
C                1.483311           -0.388381            1.695246
H                1.096552           -1.413776            1.866384
H                2.184528           -0.095343            2.507681
O                2.184387           -0.517100            0.454398
C               -2.413368           -0.890756            0.764777
H               -2.670491           -0.024879            1.411750
C               -2.538954           -3.318346            1.137955
H               -2.663242           -3.881360            2.098087
O               -2.373580           -1.976602            1.657867
C               -3.356542           -1.114609           -0.432579
H               -2.805470           -1.486842           -1.333806
O               -3.871244            0.200919           -0.753038
H               -4.731834            0.086992           -1.258004
C               -4.480544           -2.094971           -0.037573
H               -5.090792           -1.724178            0.818354
O               -5.396499           -2.168370           -1.114199
H               -5.101278           -2.851570           -1.785570
C               -3.807433           -3.460314            0.251596
H               -4.526267           -4.178609            0.709446
O               -3.489343           -3.916480           -1.066330
H               -3.024040           -4.808623           -1.031278
C               -1.243182           -3.731278            0.422791
H               -0.374929           -3.681673            1.102898
H               -1.048976           -3.116764           -0.478331
O               -1.489054           -5.096346            0.026903
H               -0.655832           -5.524812           -0.263871
C                3.175043            0.517809            0.196964
H                2.811729            1.513462            0.524828
C                3.692826           -0.613890           -1.904011
H                2.897432           -1.382543           -1.760895
O                3.223819            0.587874           -1.210528
C                4.539789            0.108959            0.791230
H                5.307154            0.893172            0.580032
O                4.345902            0.038282            2.207083
H                5.095347           -0.471246            2.611432
C                4.977697           -1.255222            0.213031
H                4.305718           -2.076983            0.555520
O                6.245437           -1.612729            0.737882
H                6.965007           -1.079055            0.304774
C                5.029690           -1.141801           -1.329669
H                5.290381           -2.120940           -1.793545
O                6.128619           -0.240487           -1.535789
H                6.302758           -0.114452           -2.492328
C                3.797797           -0.152544           -3.345253
H                4.470362            0.712798           -3.442815
H                2.820482            0.181111           -3.723088
H                4.153696           -0.948480           -4.009533
H               -2.135857            2.709289           -1.888727
