84
input.log
O               -1.378891            2.960372           -1.019611
C               -1.604985            1.661025           -1.459248
C               -0.455864            1.116019           -2.303267
C                0.857525            1.253547           -1.545477
C                1.042013            2.688745           -1.075600
C               -0.182277            3.116530           -0.267024
H               -2.519132            1.707792           -2.055331
H               -0.396342            1.737410           -3.204253
H                0.859709            0.567126           -0.693756
H                1.922869            2.738690           -0.415085
H               -0.229721            2.477360            0.626461
O                1.270135            3.430579           -2.252442
O                1.960061            0.871005           -2.358380
O               -0.675841           -0.237172           -2.656684
O               -1.777598            0.756308           -0.383700
C               -0.123599            4.542600            0.231107
H               -1.087010            4.784135            0.694612
H                0.662675            4.606848            0.995623
O                0.154177            5.416372           -0.851957
H                0.129726            6.328297           -0.557275
H                1.052950            4.357720           -2.075882
H                2.139307            1.607080           -2.959051
H               -1.600945           -0.451068           -2.449388
O               -2.525398           -1.810298            0.862496
C               -2.524779           -0.965724            2.006873
C               -3.009745            0.465404            1.635432
C               -3.093312            0.700218            0.128153
C               -3.903748           -0.410313           -0.578051
C               -3.777269           -1.733610            0.189242
H               -3.241543           -1.371000            2.733241
H               -2.308771            1.189613            2.060728
H               -3.583443            1.667632           -0.017518
H               -4.957365           -0.113550           -0.582276
H               -4.579653           -1.762955            0.941048
O               -3.434325           -0.510709           -1.915525
O               -4.328926            0.662040            2.114254
O               -1.299678           -1.063169            2.641969
C               -3.859325           -2.958600           -0.711995
H               -2.923245           -3.049272           -1.268800
H               -3.974486           -3.864082           -0.108639
O               -4.889775           -2.825828           -1.675038
H               -5.733249           -3.082455           -1.296565
H               -4.049105           -1.094479           -2.379933
H               -4.300950            0.870087            3.050487
O                1.984079           -1.410851            1.114020
C                2.752109           -0.563025            1.949830
C                1.966330            0.705275            2.225193
C                0.597230            0.388724            2.806889
C               -0.131404           -0.638053            1.954872
C                0.788959           -1.846482            1.739862
H                2.977954           -1.092172            2.893932
H                1.828718            1.206275            1.256591
H                0.733011           -0.038517            3.812070
H                1.012864           -2.289328            2.724786
H               -0.391243           -0.193668            0.989261
O               -0.181532            1.565472            2.883475
O                2.614401            1.553202            3.141603
O                3.901253           -0.209480            1.281369
C                0.201336           -2.939481            0.874658
H                0.950494           -3.725332            0.750658
H               -0.675073           -3.366019            1.368390
O               -0.137943           -2.479104           -0.422624
H               -0.961201           -1.974966           -0.335058
H                0.288507            2.179572            3.456543
H                3.484030            1.766306            2.790247
C                4.856533           -1.265550            1.125222
H                5.636125           -1.147006            1.885970
H                4.361903           -2.227992            1.291646
C                5.454385           -1.199749           -0.266268
H                6.207013           -1.993842           -0.346365
H                5.991048           -0.251153           -0.371058
C                4.430673           -1.316511           -1.393261
H                3.712112           -0.498903           -1.283285
H                4.944604           -1.152034           -2.348304
C                3.709933           -2.661286           -1.441813
H                4.441577           -3.471757           -1.537730
H                3.165819           -2.832739           -0.507515
C                2.738988           -2.797022           -2.602521
H                2.320432           -3.805024           -2.646761
H                3.232641           -2.592927           -3.556784
N                1.598335           -1.851594           -2.478126
H                0.929461           -1.926682           -3.243860
H                1.893128           -0.854655           -2.484212
H                1.033630           -2.013209           -1.613370
