72
input.log
C               -3.832523           -1.836884            0.010706
H               -3.415214           -2.837994            0.263334
O               -5.218899           -1.896256           -0.251675
H               -5.380704           -2.237211           -1.171073
C               -1.855229           -1.137174           -1.219313
H               -1.717966           -0.577474           -2.192441
O               -3.282300           -1.336498           -1.221286
C               -3.627557           -0.777490            1.129645
H               -4.053414           -1.159224            2.098606
N               -4.288982            0.485535            0.697754
H               -3.849949            0.929315           -0.145164
C               -5.409460            0.959537            1.233776
O               -5.851704            0.272524            2.305653
C               -6.121526            2.157610            0.750930
H               -6.385334            2.864320            1.562912
H               -7.072145            1.897060            0.236676
H               -5.553247            2.764165            0.016543
C               -2.105981           -0.476071            1.310196
H               -1.968420            0.415495            1.976634
O               -1.502542           -1.518241            2.029754
H               -1.347741           -2.337184            1.445981
C               -1.400449           -0.240702           -0.047041
H               -0.287444           -0.316511            0.078690
O               -1.774059            1.127191           -0.361072
C               -1.108960           -2.469513           -1.303278
H               -0.016891           -2.306746           -1.467871
H               -1.518527           -3.098657           -2.118173
O               -1.319329           -3.196046           -0.065386
H               -0.645116           -3.909279            0.012738
C               -0.814196            1.925661           -1.065729
H               -1.444062            2.685428           -1.578770
C                0.989713            1.316452           -2.645719
H                0.802157            2.205177           -3.301291
O               -0.258315            0.998109           -1.996036
C                0.218765            2.541654           -0.095595
H                0.335820            1.931357            0.829434
O               -0.396908            3.785848            0.261733
H                0.249640            4.345080            0.765808
C                1.585702            2.836268           -0.759588
H                1.488702            3.757132           -1.401921
O                2.503095            3.267553            0.218974
H                2.702888            2.534063            0.880287
C                2.108753            1.680268           -1.644504
H                3.018455            2.033692           -2.206901
O                2.696520            0.529010           -1.012892
C                1.243818            0.078593           -3.531787
H                2.221197            0.170458           -4.043768
H                0.431751           -0.031763           -4.281197
O                1.186981           -1.140697           -2.812823
H                1.906601           -1.159815           -2.107436
C                2.231245            0.028764            0.238219
H                1.138193            0.178342            0.391253
C                4.326929            0.739920            1.335011
H                4.686393            1.268967            0.418733
O                2.856314            0.785069            1.274202
C                2.691475           -1.440902            0.361329
H                2.370472           -1.841091            1.358754
O                2.012524           -2.211143           -0.636982
H                2.595498           -2.978530           -0.908052
C                4.226167           -1.535979            0.202566
H                4.561568           -1.206130           -0.810309
O                4.607447           -2.898703            0.260547
H                4.612223           -3.221263            1.204062
C                4.871405           -0.707094            1.336422
H                5.983552           -0.702256            1.250977
O                4.508904           -1.451722            2.508150
H                4.912990           -1.059198            3.312551
C                4.633659            1.504671            2.605887
H                5.701068            1.474075            2.860259
H                4.061824            1.113765            3.461651
H                4.361962            2.567861            2.515964
H               -6.716238            0.632318            2.688566
