84
input.log
O               -2.155682            2.331585           -1.475171
C               -2.069453            0.968235           -1.739051
C               -0.782263            0.608173           -2.477869
C                0.416775            1.108774           -1.678288
C                0.286780            2.593267           -1.383592
C               -1.067141            2.889430           -0.746356
H               -2.947690            0.728673           -2.345073
H               -0.800733            1.124192           -3.442449
H                0.470218            0.553035           -0.738805
H                1.064834            2.889800           -0.670558
H               -1.042158            2.478191            0.271559
O                0.490540            3.253429           -2.620464
O                1.637288            0.852990           -2.356321
O               -0.696111           -0.775765           -2.732187
O               -2.064459            0.181094           -0.565204
C               -1.352580            4.381458           -0.703830
H               -1.672263            4.693166           -1.705738
H               -2.169895            4.579636           -0.001890
O               -0.153489            5.033158           -0.316776
H               -0.338883            5.959170           -0.150018
H                0.682074            4.176906           -2.430623
H                1.748901            1.557068           -3.009172
H               -1.173166           -1.262059           -2.040783
O               -2.158098           -1.990113            1.082537
C               -2.280911           -1.066214            2.154570
C               -2.891819            0.274454            1.669433
C               -3.265571            0.204843            0.193878
C               -4.119757           -1.032422           -0.056867
C               -3.399838           -2.307198            0.459013
H               -2.954425           -1.489948            2.911559
H               -2.157411            1.070625            1.805741
H               -3.838579            1.104933           -0.050561
H               -5.039430           -0.896664            0.521028
H               -4.038408           -2.797311            1.209472
O               -4.438420           -1.161039           -1.440544
O               -4.086074            0.558320            2.372833
O               -1.051280           -0.955938            2.787251
C               -3.097223           -3.329581           -0.621280
H               -2.505664           -4.133546           -0.176583
H               -4.036216           -3.759412           -0.983603
O               -2.340597           -2.796894           -1.692340
H               -2.966761           -2.283841           -2.218507
H               -5.330283           -0.847153           -1.597766
H               -3.864819            0.943975            3.223334
O                2.241158           -0.989040            1.235454
C                2.870976            0.087827            1.907529
C                1.889521            1.238573            2.020856
C                0.597011            0.802544            2.693132
C                0.033683           -0.442144            2.025080
C                1.136904           -1.505308            1.959730
H                3.195362           -0.248910            2.909232
H                1.661496            1.557622            0.993826
H                0.813813            0.555539            3.743679
H                1.438759           -1.753034            2.991074
H               -0.297294           -0.202345            1.009154
O               -0.347627            1.851063            2.629344
O                2.395392            2.309430            2.779747
O                3.934066            0.519343            1.149109
C                0.718425           -2.793265            1.287284
H                1.577824           -3.467975            1.261677
H               -0.077716           -3.263586            1.869634
O                0.295765           -2.594209           -0.050005
H               -0.636792           -2.325872           -0.016891
H                0.081195            2.639444            2.980127
H                3.183941            2.644260            2.343125
C                5.039883           -0.387297            1.083724
H                5.805776           -0.060109            1.795780
H                4.706112           -1.388032            1.376841
C                5.589473           -0.392972           -0.329251
H                6.458257           -1.062284           -0.352631
H                5.962856            0.609843           -0.561223
C                4.568892           -0.800420           -1.389660
H                3.722405           -0.109264           -1.324436
H                5.017435           -0.655924           -2.380185
C                4.090028           -2.244731           -1.267929
H                4.945769           -2.926577           -1.330095
H                3.623693           -2.408166           -0.290795
C                3.108807           -2.655886           -2.352612
H                2.872981           -3.720316           -2.287155
H                3.515923           -2.459360           -3.348313
N                1.824998           -1.915461           -2.239680
H                1.154363           -2.157126           -2.969831
H                1.936087           -0.886872           -2.320548
H                1.330943           -2.112330           -1.338803
