84
input.log
O                2.283680           -0.974776           -0.108684
C                2.656821           -0.223421            1.041557
C                3.695114           -0.966003            1.873997
C                4.873477           -1.433522            1.033667
C                4.374994           -2.256936           -0.143172
C                3.356223           -1.460219           -0.933316
H                1.745899           -0.122700            1.631786
H                3.202310           -1.856945            2.274702
H                5.419481           -0.559706            0.647102
H                5.221054           -2.482262           -0.807725
H                3.884321           -0.608755           -1.385613
O                3.769902           -3.461754            0.295382
O                5.719833           -2.270354            1.783591
O                4.119705           -0.210714            2.977348
O                3.175461            1.026905            0.699147
C                2.696038           -2.257800           -2.047326
H                2.110824           -1.587423           -2.683320
H                3.474225           -2.712528           -2.671389
O                1.802730           -3.244855           -1.555893
H                2.277133           -3.732754           -0.862746
H                4.370049           -3.876900            0.926302
H                5.873296           -1.852752            2.638134
H                4.247737            0.698383            2.683230
O               -0.021184            3.079761           -1.053595
C               -0.075190            3.009682            0.356396
C                0.885606            1.941039            0.900334
C                2.277513            2.082852            0.309055
C                2.190556            2.194440           -1.211965
C                1.281800            3.366673           -1.549145
H                0.190919            3.985546            0.784572
H                0.506358            0.972109            0.548168
H                2.741647            2.993781            0.699627
H                3.196932            2.367454           -1.614449
H                1.665626            4.281944           -1.073158
O                1.618986            1.037336           -1.804745
O                0.978819            1.988240            2.291555
O               -1.402131            2.799432            0.726010
C                1.129126            3.628820           -3.033905
H                2.113469            3.821172           -3.468515
H                0.714774            2.733908           -3.518135
O                0.345476            4.768069           -3.275727
H               -0.501086            4.643575           -2.838435
H                1.824224            0.270912           -1.240510
H                0.091968            1.908996            2.686134
O               -3.337715           -0.203420           -0.060076
C               -4.154947           -0.303176            1.099439
C               -3.329644            0.058069            2.326369
C               -2.651011            1.406329            2.174586
C               -1.934831            1.493082            0.841566
C               -2.876296            1.119390           -0.301837
H               -5.026826            0.366521            0.989563
H               -2.543999           -0.709711            2.407007
H               -3.403154            2.205406            2.234739
H               -3.725689            1.820359           -0.336407
H               -1.155029            0.728944            0.844839
O               -1.674967            1.577936            3.184930
O               -4.102046            0.116832            3.497288
O               -4.547822           -1.612439            1.275028
C               -2.215006            1.128232           -1.664189
H               -2.930738            0.741791           -2.396074
H               -1.961150            2.154501           -1.929202
O               -1.047682            0.317441           -1.699207
H               -0.241432            0.862759           -1.781657
H               -2.102479            1.513774            4.044599
H               -4.478228           -0.753450            3.657796
C               -5.577310           -2.116669            0.421011
H               -5.861318           -3.066888            0.879391
H               -6.446645           -1.448167            0.461308
C               -5.123214           -2.320601           -1.018813
H               -5.020379           -1.343038           -1.497714
H               -5.918173           -2.851414           -1.553934
C               -3.794560           -3.071147           -1.115371
H               -3.210939           -2.788884           -0.233010
H               -3.955372           -4.153187           -1.047513
C               -3.013352           -2.733766           -2.381156
H               -3.470049           -3.209198           -3.254939
H               -3.059329           -1.653276           -2.558542
C               -1.553823           -3.149053           -2.331712
H               -1.051231           -2.953068           -3.280700
H               -1.435926           -4.211221           -2.102460
N               -0.806166           -2.380465           -1.292577
H               -0.888589           -1.347467           -1.461370
H                0.201975           -2.663231           -1.279990
H               -1.200171           -2.550554           -0.368673
