84
input.log
O                1.260292            2.592222            1.889167
C                1.602955            1.232696            1.941649
C                0.507617            0.396744            2.607317
C               -0.841780            0.681537            1.956286
C               -1.097165            2.181132            1.858577
C                0.071276            2.821614            1.131458
H                2.526212            1.184166            2.523953
H                0.456777            0.709726            3.659710
H               -0.847704            0.243837            0.952674
H               -2.022367            2.358827            1.303397
H                0.175726            2.362924            0.143019
O               -1.303577            2.714351            3.155528
O               -1.893513            0.046226            2.667985
O                0.797966           -0.984131            2.542539
O                1.799497            0.688415            0.662548
C               -0.077030            4.310794            0.909255
H               -0.376493            4.815440            1.835575
H                0.890593            4.712966            0.585992
O               -1.063854            4.447488           -0.100164
H               -1.367380            5.356727           -0.123664
H               -0.443090            2.931482            3.531246
H               -2.110210            0.600155            3.428960
H                1.728110           -1.080164            2.274437
O                2.566319           -1.368162           -1.272545
C                2.529915           -0.233876           -2.137739
C                2.981490            1.043564           -1.382022
C                3.102127            0.838001            0.130517
C                3.963677           -0.395588            0.471977
C                3.830593           -1.459271           -0.627714
H                3.250473           -0.388972           -2.948960
H                2.246592            1.829348           -1.578461
H                3.562366            1.737894            0.553887
H                5.010642           -0.080182            0.520726
H                4.616242           -1.269424           -1.373932
O                3.552979           -0.869830            1.748063
O                4.262081            1.369186           -1.898606
O                1.301282           -0.180741           -2.765035
C                3.947822           -2.882625           -0.099516
H                3.030205           -3.136989            0.437224
H                4.050437           -3.585838           -0.931176
O                5.006845           -3.002669            0.834368
H                5.837693           -3.150319            0.377795
H                4.190583           -1.549155            2.007058
H                4.376454            2.321342           -1.895025
O               -1.951712           -1.061056           -1.404279
C               -2.754300           -0.009542           -1.916165
C               -1.998439            1.301826           -1.803148
C               -0.625656            1.221935           -2.455159
C                0.127886           -0.011536           -1.980122
C               -0.762576           -1.245682           -2.153499
H               -3.002412           -0.222981           -2.971580
H               -1.865734            1.494462           -0.730126
H               -0.761508            1.144410           -3.544917
H               -0.997704           -1.358062           -3.224875
H                0.387168            0.108236           -0.924088
O                0.130533            2.370340           -2.141059
O               -2.678786            2.365012           -2.421300
O               -3.885903            0.086620           -1.139067
C               -0.134018           -2.539710           -1.686154
H               -0.862392           -3.345860           -1.802014
H                0.739916           -2.764619           -2.302423
O                0.230419           -2.497318           -0.314801
H                1.051506           -1.982118           -0.267320
H               -0.462791            3.132442           -2.141076
H               -3.487342            2.533632           -1.929925
C               -4.822039           -0.982808           -1.308924
H               -5.623052           -0.645059           -1.975979
H               -4.319908           -1.832090           -1.783898
C               -5.385913           -1.377122            0.042256
H               -6.122179           -2.173994           -0.120018
H               -5.936233           -0.524532            0.453378
C               -4.332059           -1.819423            1.055105
H               -3.634158           -0.988394            1.196185
H               -4.823369           -1.980594            2.022579
C               -3.581379           -3.088645            0.659854
H               -4.290857           -3.912011            0.518409
H               -3.069103           -2.941864           -0.296289
C               -2.565281           -3.547540            1.692820
H               -2.109264           -4.496024            1.400640
H               -3.030734           -3.681761            2.673220
N               -1.463509           -2.561122            1.853957
H               -0.769659           -2.846935            2.544166
H               -1.800094           -1.638659            2.185484
H               -0.920690           -2.420040            0.970156
