84
input.log
O               -2.141555            2.414399           -1.410750
C               -2.067173            1.066245           -1.733793
C               -0.776525            0.715146           -2.474324
C                0.419936            1.184740           -1.651953
C                0.298190            2.657280           -1.301292
C               -1.054752            2.937691           -0.657087
H               -2.946986            0.871291           -2.354135
H               -0.780675            1.240708           -3.433143
H                0.462060            0.594427           -0.733193
H                1.076381            2.919873           -0.575043
H               -1.035891            2.488919            0.344710
O                0.513137            3.360459           -2.512141
O                1.646666            0.951064           -2.327960
O               -0.710025           -0.674468           -2.737760
O               -2.075021            0.217546           -0.600907
C               -1.331568            4.428898           -0.561031
H               -1.648422            4.778074           -1.551352
H               -2.148300            4.606588            0.146742
O               -0.128225            5.058779           -0.150243
H               -0.308704            5.978505            0.052840
H                0.699007            4.277671           -2.288442
H                1.774090            1.685606           -2.943414
H               -1.226412           -1.129393           -2.056352
O               -2.209979           -2.020793            1.019382
C               -2.316658           -1.104983            2.101735
C               -2.916181            0.247874            1.635885
C               -3.283612            0.218247            0.157677
C               -4.136402           -1.004990           -0.163490
C               -3.467913           -2.292427            0.404660
H               -2.992810           -1.529378            2.855748
H               -2.178033            1.035932            1.797274
H               -3.854651            1.122839           -0.068074
H               -5.088653           -0.858047            0.352542
H               -4.131666           -2.732054            1.163515
O               -4.455764           -1.077712           -1.532309
O               -4.112262            0.520304            2.339842
O               -1.083973           -1.021217            2.733335
C               -3.216926           -3.361280           -0.629925
H               -2.768365           -4.233577           -0.143123
H               -4.168441           -3.645868           -1.088985
O               -2.320796           -2.831814           -1.614669
H               -2.166770           -3.499191           -2.288011
H               -3.677330           -1.398771           -2.001581
H               -3.894257            0.900808            3.193312
O                2.217520           -1.055347            1.203362
C                2.851376            0.004736            1.900865
C                1.879131            1.161448            2.027386
C                0.577445            0.724985            2.680887
C                0.006481           -0.501885            1.985268
C                1.102375           -1.572157            1.912038
H                3.163880           -0.353520            2.898586
H                1.663013            1.502228            1.004913
H                0.784678            0.453218            3.727350
H                1.394660           -1.834627            2.942465
H               -0.317538           -0.243133            0.971474
O               -0.355148            1.783935            2.633722
O                2.389037            2.212178            2.810996
O                3.924986            0.441213            1.160623
C                0.681690           -2.851290            1.225078
H                1.534824           -3.534329            1.209957
H               -0.128920           -3.315436            1.791919
O                0.283345           -2.642318           -0.119815
H               -0.655539           -2.395825           -0.108920
H                0.077311            2.559100            3.008719
H                3.181306            2.551977            2.385166
C                5.035574           -0.459900            1.112905
H                5.774572           -0.150908            1.860691
H                4.694644           -1.468879            1.367402
C                5.634699           -0.425912           -0.279367
H                6.492545           -1.109145           -0.296813
H                6.032000            0.577270           -0.465053
C                4.642586           -0.779260           -1.385136
H                3.814122           -0.065044           -1.330531
H                5.128113           -0.624058           -2.356109
C                4.121475           -2.212364           -1.313086
H                4.956076           -2.916199           -1.405734
H                3.654125           -2.398654           -0.340554
C                3.119145           -2.550318           -2.402923
H                2.861067           -3.611504           -2.386714
H                3.514985           -2.311486           -3.393858
N                1.855137           -1.787420           -2.229622
H                1.171742           -1.958110           -2.968161
H                1.994076           -0.759085           -2.254404
H                1.363218           -2.029691           -1.339795
