84
input.log
O               -1.379491            3.094750           -0.795454
C               -1.575491            1.854475           -1.397776
C               -0.376633            1.418198           -2.236446
C                0.887484            1.454257           -1.388649
C                1.046251            2.820646           -0.739886
C               -0.220473            3.176890            0.033213
H               -2.457678            1.974230           -2.030940
H               -0.265794            2.145924           -3.048347
H                0.830181            0.672883           -0.625513
H                1.878951            2.778510           -0.019808
H               -0.315461            2.474514            0.873081
O                1.366176            3.699696           -1.796132
O                2.036252            1.155379           -2.169708
O               -0.566554            0.120712           -2.771287
O               -1.795842            0.829954           -0.450832
C               -0.204893            4.584441            0.595937
H               -1.113306            4.749135            1.186033
H                0.656863            4.702803            1.257875
O               -0.075275            5.566518           -0.419620
H               -0.902999            5.596843           -0.908472
H                1.108995            4.598599           -1.537743
H                2.269081            1.956570           -2.657984
H               -1.489703           -0.133117           -2.619399
O               -2.558362           -1.841246            0.476863
C               -2.619453           -1.138381            1.713050
C               -3.093389            0.326320            1.484903
C               -3.128409            0.721447            0.009844
C               -3.909070           -0.308329           -0.841700
C               -3.795955           -1.704990           -0.230239
H               -3.370582           -1.626849            2.347027
H               -2.406407            0.999243            2.006759
H               -3.617229            1.698571           -0.049009
H               -4.964495           -0.018312           -0.850223
H               -4.613083           -1.831760            0.492779
O               -3.383688           -0.242082           -2.168661
O               -4.427017            0.477968            1.935024
O               -1.428793           -1.309113            2.395909
C               -3.860232           -2.849098           -1.220880
H               -4.775697           -2.765930           -1.814875
H               -3.005248           -2.786107           -1.908370
O               -3.914624           -4.092082           -0.572827
H               -3.138971           -4.164313           -0.010774
H               -4.063850           -0.495668           -2.795932
H               -4.437465            0.549960            2.891971
O                1.932324           -1.494215            1.018502
C                2.653286           -0.735531            1.975514
C                1.845575            0.496733            2.338968
C                0.448964            0.123130            2.811917
C               -0.227883           -0.811857            1.822745
C                0.711571           -1.990776            1.538234
H                2.833948           -1.359523            2.869979
H                1.756519            1.094601            1.420975
H                0.533745           -0.404238            3.774034
H                0.889371           -2.526472            2.485668
H               -0.438987           -0.274091            0.893547
O               -0.338553            1.286206            2.965908
O                2.437726            1.245755            3.371157
O                3.831543           -0.314218            1.405935
C                0.173558           -2.997042            0.545367
H                0.935255           -3.761593            0.375002
H               -0.712975           -3.477575            0.967043
O               -0.127152           -2.415329           -0.711478
H               -0.971742           -1.949312           -0.605150
H                0.095255            1.838246            3.624603
H                3.322034            1.500156            3.091111
C                4.796950           -1.349092            1.181619
H                5.541800           -1.311687            1.984102
H                4.299170           -2.323443            1.223565
C                5.454186           -1.135853           -0.167481
H                6.213836           -1.916340           -0.298540
H                5.990324           -0.181413           -0.146803
C                4.480826           -1.131254           -1.343933
H                3.751297           -0.333334           -1.174742
H                5.033635           -0.860288           -2.251811
C                3.772626           -2.464355           -1.572139
H                4.513234           -3.256787           -1.729842
H                3.193651           -2.741660           -0.685377
C                2.850051           -2.470456           -2.779448
H                2.437305           -3.466757           -2.952950
H                3.381825           -2.161365           -3.683619
N                1.701033           -1.543294           -2.599417
H                1.072254           -1.526306           -3.401764
H                1.993763           -0.554213           -2.475286
H                1.096109           -1.805647           -1.788747
