84
input.log
O               -2.270854            2.414288           -1.053791
C               -2.106413            1.118254           -1.533184
C               -0.801378            0.941770           -2.306805
C                0.375396            1.395902           -1.445859
C                0.137532            2.816510           -0.956430
C               -1.205741            2.878702           -0.230996
H               -2.969929            0.925905           -2.175326
H               -0.849438            1.587337           -3.187541
H                0.488727            0.714617           -0.599024
H                0.923843            3.088009           -0.233715
H               -1.117065            2.237897            0.657904
O                0.233998            3.618642           -2.111504
O                1.597341            1.327196           -2.167074
O               -0.643218           -0.386244           -2.755402
O               -2.053352            0.157964           -0.493679
C               -1.572453            4.257306            0.270027
H               -2.589954            4.217202            0.675942
H               -0.879673            4.523077            1.079934
O               -1.485477            5.190550           -0.794841
H               -1.769740            6.057391           -0.499852
H               -0.236524            4.449074           -1.947825
H                1.628346            2.098710           -2.748459
H               -1.068873           -0.987681           -2.125197
O               -2.010431           -2.249159            0.801256
C               -2.175749           -1.506034            1.998206
C               -2.880553           -0.151346            1.722703
C               -3.251143           -0.012751            0.250237
C               -4.025663           -1.247119           -0.199096
C               -3.237904           -2.540955            0.139003
H               -2.808150           -2.080734            2.688558
H               -2.203404            0.661540            1.993258
H               -3.880666            0.876598            0.144229
H               -4.959546           -1.253535            0.371613
H               -3.847216           -3.162134            0.812865
O               -4.315363           -1.184909           -1.593288
O               -4.093808           -0.065819            2.445770
O               -0.946779           -1.409702            2.635810
C               -2.884559           -3.386371           -1.070557
H               -2.270541           -4.225637           -0.734691
H               -3.801255           -3.790684           -1.510840
O               -2.129371           -2.676649           -2.034323
H               -2.763549           -2.117964           -2.500283
H               -5.222570           -0.904263           -1.723242
H               -3.901527            0.162983            3.357775
O                2.330749           -1.058045            1.092540
C                2.911490           -0.058906            1.912462
C                1.875741            1.014800            2.185037
C                0.610464            0.425281            2.786982
C                0.101727           -0.739227            1.948973
C                1.257548           -1.725311            1.734699
H                3.257551           -0.519421            2.856163
H                1.629450            1.462526            1.211452
H                0.844703            0.040622            3.791243
H                1.576444           -2.099978            2.721634
H               -0.251022           -0.378634            0.976936
O               -0.384308            1.426114            2.876427
O                2.334100            1.993268            3.086360
O                3.946566            0.532978            1.227638
C                0.904392           -2.925183            0.885232
H                1.796460           -3.547478            0.777418
H                0.129923           -3.509474            1.387828
O                0.481808           -2.560827           -0.416154
H               -0.468936           -2.374331           -0.369446
H               -0.012699            2.143720            3.400311
H                3.129564            2.390706            2.719745
C                5.100487           -0.291667            1.033467
H                5.845011           -0.041874            1.797727
H                4.820604           -1.342415            1.160087
C                5.653136           -0.041347           -0.355843
H                6.551405           -0.658500           -0.479539
H                5.980930            1.001513           -0.417780
C                4.654544           -0.315625           -1.478062
H                3.779411            0.321502           -1.313403
H                5.100023            0.003204           -2.428212
C                4.239226           -1.780264           -1.591302
H                5.123253           -2.403751           -1.766391
H                3.789999           -2.121925           -0.652808
C                3.262818           -2.053113           -2.722422
H                3.084820           -3.124299           -2.839315
H                3.638892           -1.665547           -3.673247
N                1.944331           -1.415695           -2.468199
H                1.267883           -1.571217           -3.216534
H                1.998277           -0.382689           -2.381662
H                1.485973           -1.787093           -1.605685
