84
input.log
O                4.918510            0.421222           -1.014291
C                3.934053           -0.554781           -0.957823
C                4.320001           -1.644223            0.029892
C                4.525905           -1.045841            1.411373
C                5.591893            0.035962            1.341160
C                5.259586            1.034568            0.228439
H                3.858844           -0.959903           -1.972430
H                5.262045           -2.085218           -0.317443
H                3.580108           -0.606863            1.744012
H                5.610890            0.587356            2.287813
H                4.415685            1.644031            0.581373
O                6.822642           -0.631671            1.137938
O                4.850809           -2.065846            2.326660
O                3.301133           -2.631434            0.058265
O                2.689738           -0.012978           -0.554728
C                6.447122            1.925405           -0.097903
H                7.143637            1.341734           -0.712040
H                6.110649            2.789593           -0.680985
O                7.036061            2.310958            1.131101
H                7.685681            2.997632            0.970099
H                7.527827           -0.023651            1.380125
H                5.805847           -2.197078            2.264917
H                3.496705           -3.199272            0.814373
O               -1.075765           -0.086759           -2.204668
C               -0.478340            1.189659           -1.989848
C                0.629103            1.006681           -0.960772
C                1.678339            0.077173           -1.537170
C                1.044462           -1.287573           -1.822289
C               -0.213662           -1.116047           -2.679485
H               -0.062285            1.579984           -2.928570
H                0.204189            0.532596           -0.066527
H                2.087636            0.508466           -2.463913
H                1.742813           -1.903242           -2.407517
H                0.117654           -0.861622           -3.698709
O                0.738263           -1.939831           -0.608547
O                1.174302            2.268851           -0.640301
O               -1.471270            2.086480           -1.641389
C               -1.045364           -2.389724           -2.762568
H               -1.907042           -2.217370           -3.412491
H               -0.433190           -3.176536           -3.221671
O               -1.541210           -2.814340           -1.504988
H               -0.772049           -2.799304           -0.905864
H                1.591119           -2.186361           -0.194834
H                2.058250            2.105534           -0.291368
O               -4.555372            1.322596            0.144734
C               -4.062137            1.376195            1.442037
C               -3.155030            2.578278            1.692747
C               -1.987761            2.654440            0.683102
C               -2.280580            1.756410           -0.514268
C               -3.758306            1.950178           -0.866852
H               -4.923786            1.419774            2.119045
H               -2.710635            2.471672            2.689902
H               -1.957424            3.686650            0.303615
H               -3.988787            3.025010           -0.876486
H               -2.111940            0.715007           -0.235720
O               -0.798514            2.333186            1.358038
O               -4.012785            3.695314            1.624349
O               -3.363641            0.151655            1.645079
C               -4.181599            1.389009           -2.207559
H               -5.268710            1.457719           -2.283374
H               -3.742230            2.006379           -2.997131
O               -3.836738            0.026354           -2.393108
H               -2.872390           -0.022940           -2.505560
H               -0.053003            2.574844            0.787039
H               -3.560729            4.463667            1.980394
C               -3.072287           -0.255321            2.978502
H               -2.133279            0.206449            3.303363
H               -3.876059            0.077973            3.649863
C               -2.966673           -1.767439            2.976340
H               -2.554953           -2.071190            3.943143
H               -2.210325           -2.055990            2.235262
C               -4.304376           -2.495911            2.720717
H               -4.526164           -3.118857            3.590622
H               -5.119509           -1.762373            2.675504
C               -4.384766           -3.396057            1.477896
H               -3.430469           -3.913603            1.317448
H               -5.120037           -4.185297            1.663023
C               -4.823795           -2.713643            0.191194
H               -5.760654           -2.172111            0.347408
H               -4.988072           -3.447644           -0.600669
N               -3.829225           -1.735619           -0.305076
H               -4.156883           -1.155460           -1.102647
H               -2.959443           -2.188747           -0.647187
H               -3.598987           -1.046550            0.435983
