72
input.log
C                2.641544           -2.558133            1.010737
H                2.199482           -3.577719            1.096545
O                3.906206           -2.485732            1.634599
H                3.802250           -2.403259            2.619688
C                0.536581           -1.353316            1.281307
H                0.217468           -0.509752            1.958171
O                1.859225           -1.613886            1.775346
C                2.829309           -2.096949           -0.462261
H                3.315756           -2.930406           -1.045035
N                3.666528           -0.867155           -0.494251
H                3.167401            0.013785           -0.206425
C                4.974321           -0.852426           -0.741214
O                5.494524           -2.033966           -1.122848
C                5.800098            0.366112           -0.659517
H                5.219350            1.276708           -0.375789
H                6.299901            0.618520           -1.614601
H                6.595789            0.285590            0.109433
C                1.456760           -1.745819           -1.124197
H                1.626630           -1.190940           -2.086986
O                0.805538           -2.910638           -1.551360
H                0.450786           -3.460645           -0.778076
C                0.581342           -0.882570           -0.180506
H               -0.464524           -0.778708           -0.592694
O                1.203225            0.416940           -0.364665
C               -0.421696           -2.528826            1.527067
H               -1.421638           -2.324142            1.081664
H               -0.513865           -2.735192            2.611492
O                0.136986           -3.708242            0.903198
H               -0.452208           -4.482652            1.064673
C                1.275461            1.373650            0.704328
H                1.748961            0.937790            1.614446
C               -0.798816            2.690270            0.357663
H               -1.590833            2.939717            1.116159
O               -0.009428            1.748303            1.137818
C                2.073446            2.518286            0.038173
H                2.055997            2.449804           -1.080657
O                3.433598            2.325873            0.456506
H                3.886498            3.208497            0.504250
C                1.480276            3.858959            0.509890
H                1.548980            3.994443            1.610589
O                2.268853            4.845870           -0.167173
H                2.180020            5.725381            0.270440
C                0.021512            3.950595           -0.008702
H               -0.482119            4.871098            0.368675
O                0.044452            4.019782           -1.437618
H                0.721766            4.684967           -1.733864
C               -1.421244            1.988703           -0.853506
H               -0.771220            1.193739           -1.258523
H               -1.687059            2.706708           -1.664434
O               -2.716035            1.454893           -0.517566
C               -2.761482            0.419327            0.452614
H               -2.006076            0.525942            1.254597
C               -3.204172           -1.142037           -1.379875
H               -3.025791           -0.312938           -2.105000
O               -2.420188           -0.826712           -0.181327
C               -4.230570            0.349207            0.934866
H               -4.339750           -0.441802            1.713688
O               -4.493394            1.589809            1.581098
H               -5.427145            1.874004            1.405006
C               -5.157736            0.078980           -0.275013
H               -5.184447            0.964963           -0.956322
O               -6.494690           -0.043851            0.176196
H               -6.669427           -0.966067            0.506892
C               -4.703236           -1.209028           -1.009188
H               -5.338858           -1.394476           -1.909831
O               -5.017565           -2.328699           -0.177088
H               -4.345802           -2.426174            0.534324
C               -2.639702           -2.461474           -1.862213
H               -2.970515           -2.681683           -2.888122
H               -2.966540           -3.306554           -1.241121
H               -1.538589           -2.456645           -1.873810
H                6.491242           -2.000843           -1.293315
