84
input.log
O                4.224910           -0.695775            0.913630
C                3.347607            0.382001            0.951093
C                4.024408            1.624350            0.394688
C                4.503213            1.382623           -1.028067
C                5.435827            0.182407           -1.059957
C                4.779449           -1.012388           -0.364745
H                3.094422            0.516445            2.008634
H                4.892108            1.823765            1.034229
H                3.633270            1.185604           -1.662898
H                5.627229           -0.100787           -2.100958
H                3.986150           -1.386649           -1.027768
O                6.633321            0.599863           -0.435456
O                5.108382            2.554499           -1.519729
O                3.138903            2.736596            0.426255
O                2.174049            0.159832            0.195619
C                5.787553           -2.115106           -0.081850
H                6.370813           -1.817061            0.798046
H                5.260686           -3.047437            0.149823
O                6.605534           -2.239642           -1.229837
H                7.141199           -3.031760           -1.156604
H                7.329531           -0.010480           -0.697692
H                6.036503            2.520323           -1.252279
H                3.580417            3.433584           -0.078031
O               -1.069418           -2.266920            0.997628
C               -0.551898           -2.301652           -0.308343
C                0.375418           -1.113959           -0.550850
C                1.426310           -1.005747            0.533839
C                0.764529           -0.935330            1.902826
C               -0.152737           -2.151309            2.066084
H               -0.002051           -3.234685           -0.495618
H               -0.236456           -0.203882           -0.531328
H                2.084454           -1.884017            0.505069
H                1.526089           -0.989066            2.692740
H                0.481112           -3.050001            2.134275
O                0.050433            0.286795            2.016844
O                0.953314           -1.284337           -1.826764
O               -1.625032           -2.328424           -1.184942
C               -1.021633           -2.052194            3.315478
H               -1.619417           -2.964053            3.411595
H               -0.388588           -1.963468            4.202937
O               -1.852797           -0.906948            3.258455
H               -2.614666           -1.091582            2.657314
H               -0.781115            0.085462            2.523486
H                1.623791           -0.602006           -1.929347
O               -5.050578           -1.138281           -1.174406
C               -4.847326            0.218947           -1.320171
C               -3.718621            0.576331           -2.297645
C               -2.676716           -0.532266           -2.371249
C               -2.597083           -1.288742           -1.056641
C               -3.943658           -1.948615           -0.757748
H               -5.791214            0.622599           -1.699799
H               -3.210415            1.471320           -1.911171
H               -2.989778           -1.240852           -3.151267
H               -4.000172           -2.855458           -1.369718
H               -2.327678           -0.609618           -0.241843
O               -1.447524            0.077363           -2.715980
O               -4.308419            0.847142           -3.545308
O               -4.553302            0.773916           -0.037923
C               -4.121291           -2.360676            0.693633
H               -5.125992           -2.783823            0.805342
H               -3.385068           -3.128990            0.934984
O               -3.934007           -1.296905            1.612387
H               -4.348640           -0.498981            1.240496
H               -0.780083           -0.613083           -2.830865
H               -3.609459            1.020773           -4.181705
C               -4.929152            2.136667            0.137769
H               -4.855244            2.670381           -0.819348
H               -5.973510            2.183828            0.468065
C               -3.998685            2.762754            1.155092
H               -4.031572            2.173515            2.079590
H               -4.375991            3.760361            1.406136
C               -2.565223            2.858895            0.645938
H               -2.259124            1.860885            0.306542
H               -2.541726            3.515583           -0.235654
C               -1.591258            3.376462            1.697085
H               -1.967253            4.309546            2.130146
H               -1.521320            2.661634            2.525554
C               -0.201780            3.662068            1.153395
H                0.487604            3.933014            1.955291
H               -0.217481            4.481573            0.430035
N                0.379957            2.471720            0.473733
H                1.403334            2.574262            0.314143
H               -0.073214            2.290607           -0.420818
H                0.263133            1.607320            1.062395
