84
input.log
O               -3.147788           -0.436625           -0.661838
C               -3.449024            0.929548           -0.507879
C               -4.596746            1.173021            0.491553
C               -5.557806           -0.008412            0.442360
C               -4.837280           -1.333580            0.816835
C               -3.339148           -1.201944            0.537660
H               -3.731978            1.281855           -1.504278
H               -5.126794            2.079227            0.171066
H               -6.376767            0.168155            1.144086
H               -4.960898           -1.512933            1.888909
H               -2.878248           -0.657271            1.369959
O               -5.414116           -2.419019            0.144890
O               -6.043604           -0.112571           -0.889124
O               -4.145497            1.298859            1.818222
O               -2.337272            1.636640           -0.023359
C               -2.629460           -2.523053            0.376158
H               -2.925250           -3.188508            1.191258
H               -2.924044           -3.001894           -0.560765
O               -1.217703           -2.344405            0.432383
H               -0.823352           -2.358136           -0.463307
H               -5.702330           -2.086697           -0.715388
H               -6.987184            0.054245           -0.900225
H               -3.409114            1.919198            1.813908
O                1.462746            2.180374           -1.533429
C                0.695655            1.264646           -2.295585
C               -0.572460            0.820822           -1.551499
C               -1.326871            2.010473           -0.945919
C               -0.376683            2.913360           -0.176068
C                0.762518            3.337080           -1.099953
H                0.403460            1.727496           -3.246650
H               -0.281700            0.158202           -0.730658
H               -1.774757            2.589508           -1.767356
H               -0.930212            3.801062            0.157497
H                0.339776            3.864976           -1.969184
O                0.122318            2.202327            0.949832
O               -1.323777            0.107862           -2.503707
O                1.523378            0.208985           -2.649365
C                1.774577            4.265714           -0.444229
H                2.577038            4.479418           -1.156477
H                1.278745            5.208451           -0.197201
O                2.295672            3.733006            0.766624
H                3.107407            3.238839            0.584075
H                0.928807            2.676968            1.232411
H               -2.041695           -0.337743           -2.017615
O                4.158191           -1.560278           -0.809744
C                3.335751           -2.324213            0.007424
C                2.119590           -2.939605           -0.705881
C                1.596402           -2.034646           -1.814789
C                2.054783           -0.600472           -1.604091
C                3.581576           -0.555822           -1.648294
H                3.985122           -3.136336            0.355411
H                1.328744           -3.066466            0.045212
H                2.022283           -2.393248           -2.760557
H                3.888498           -0.790289           -2.675669
H                1.713588           -0.233004           -0.631780
O                0.186192           -2.139984           -1.859979
O                2.448812           -4.168081           -1.305502
O                2.870847           -1.603791            1.140096
C                4.165357            0.803352           -1.292891
H                5.238918            0.685249           -1.135907
H                4.007198            1.484090           -2.137439
O                3.612432            1.349328           -0.106289
H                2.708123            1.586405           -0.361346
H               -0.163917           -1.520242           -2.520953
H                2.480606           -4.858823           -0.639852
C                3.941404           -1.200877            2.012580
H                4.594560           -2.067279            2.174161
H                4.517984           -0.412640            1.520779
C                3.365372           -0.722106            3.326341
H                4.200114           -0.594014            4.021516
H                2.753547           -1.527212            3.749639
C                2.567719            0.589241            3.212291
H                3.120092            1.403966            3.687443
H                2.506854            0.876818            2.155919
C                1.168071            0.549725            3.827355
H                1.233110            0.379500            4.907066
H                0.690986            1.527630            3.698279
C                0.256224           -0.524171            3.249527
H               -0.778896           -0.366991            3.559476
H                0.549084           -1.527530            3.565124
N                0.296252           -0.512608            1.764478
H                1.233439           -0.823148            1.448690
H                0.125789            0.444988            1.406289
H               -0.394259           -1.177078            1.337353
