84
input.log
O               -1.386183            2.976676           -0.990870
C               -1.611918            1.679634           -1.438935
C               -0.464582            1.140306           -2.289699
C                0.850784            1.274911           -1.534976
C                1.035828            2.707984           -1.060013
C               -0.185004            3.130138           -0.243553
H               -2.527578            1.729405           -2.032513
H               -0.408436            1.766487           -3.187602
H                0.854529            0.585819           -0.685575
H                1.919206            2.756015           -0.402807
H               -0.227401            2.486128            0.646583
O                1.257636            3.455633           -2.234399
O                1.951268            0.894549           -2.351273
O               -0.683550           -0.211223           -2.649265
O               -1.780805            0.768879           -0.368058
C               -0.123639            4.553592            0.261418
H               -1.082806            4.792799            0.735177
H                0.669101            4.613705            1.019442
O                0.143349            5.433976           -0.819003
H                0.144158            6.342668           -0.513317
H                1.041380            4.381747           -2.051776
H                2.129390            1.631589           -2.950945
H               -1.608199           -0.427446           -2.442192
O               -2.514244           -1.821285            0.842983
C               -2.519651           -0.994352            2.002235
C               -3.009468            0.434500            1.652279
C               -3.094436            0.693602            0.145104
C               -3.902626           -0.410541           -0.574257
C               -3.767230           -1.743869            0.174218
H               -3.235443           -1.403527            2.724559
H               -2.313547            1.149914            2.099882
H               -3.589178            1.661584            0.001875
H               -4.958327           -0.120994           -0.571093
H               -4.568067           -1.789313            0.926713
O               -3.438692           -0.488607           -1.914961
O               -4.308667            0.535787            2.213246
O               -1.293126           -1.092203            2.631807
C               -3.845128           -2.955812           -0.744951
H               -2.910143           -3.034472           -1.305443
H               -3.955080           -3.870426           -0.154763
O               -4.878817           -2.812793           -1.703500
H               -5.718813           -3.086978           -1.329723
H               -4.048476           -1.074909           -2.383169
H               -4.517810            1.458963            2.370059
O                1.990762           -1.422712            1.103583
C                2.756613           -0.576698            1.942988
C                1.968299            0.688839            2.223363
C                0.597203            0.369834            2.799572
C               -0.127589           -0.658942            1.946206
C                0.797330           -1.863473            1.729435
H                2.983825           -1.109392            2.884700
H                1.832789            1.194277            1.256710
H                0.728412           -0.056044            3.805673
H                1.023394           -2.306618            2.713653
H               -0.388690           -0.214306            0.981174
O               -0.182357            1.546783            2.871019
O                2.614239            1.532955            3.144790
O                3.905128           -0.217094            1.276085
C                0.212908           -2.957408            0.863461
H                0.965503           -3.739187            0.734873
H               -0.659830           -3.389468            1.358989
O               -0.134163           -2.494626           -0.431209
H               -0.962072           -1.999036           -0.335251
H                0.269200            2.150293            3.469309
H                3.486054            1.744183            2.797770
C                4.861453           -1.270761            1.111127
H                5.642665           -1.156098            1.870784
H                4.368585           -2.234955            1.272362
C                5.455980           -1.194791           -0.281342
H                6.208835           -1.987865           -0.369035
H                5.991873           -0.245172           -0.380650
C                4.429505           -1.303857           -1.406616
H                3.710487           -0.487748           -1.288079
H                4.940662           -1.131256           -2.361708
C                3.709951           -2.648894           -1.463909
H                4.441875           -3.457594           -1.571794
H                3.171340           -2.829860           -0.528266
C                2.732478           -2.774250           -2.620319
H                2.313786           -3.781853           -2.671438
H                3.220672           -2.561183           -3.575435
N                1.592377           -1.830316           -2.480648
H                0.920305           -1.897291           -3.244349
H                1.887234           -0.833698           -2.478413
H                1.031391           -2.002386           -1.615251
