84
input.log
O               -3.483526            0.879667            0.624615
C               -3.030277           -0.412074            0.320103
C               -3.959851           -1.450582            0.919826
C               -5.381159           -1.242598            0.411960
C               -5.825029            0.192215            0.699840
C               -4.793917            1.161847            0.126757
H               -2.035976           -0.485008            0.767113
H               -3.948894           -1.308692            2.008607
H               -5.392909           -1.413442           -0.668509
H               -6.788291            0.364241            0.201987
H               -4.792558            1.038848           -0.964649
O               -5.962265            0.293560            2.108498
O               -6.245257           -2.193391            0.982459
O               -3.450014           -2.719952            0.576228
O               -2.993665           -0.625525           -1.066788
C               -5.046862            2.614473            0.436770
H               -6.071623            2.871600            0.133818
H               -4.938664            2.777509            1.516381
O               -4.089683            3.356484           -0.296933
H               -4.168690            4.285019           -0.070424
H               -6.650151            0.923545            2.328812
H               -6.437147           -1.896150            1.880280
H               -4.140460           -3.372703            0.735446
O                0.923492            0.214129           -2.249292
C                0.516440           -1.153065           -2.183327
C               -0.643439           -1.242341           -1.197779
C               -1.782726           -0.404611           -1.762205
C               -1.361229            1.061859           -1.852240
C               -0.062656            1.155596           -2.663792
H                0.198454           -1.505524           -3.173640
H               -0.293901           -0.806073           -0.252140
H               -2.004725           -0.758502           -2.776232
H               -2.130735            1.622729           -2.399044
H               -0.323536            0.959420           -3.715577
O               -1.171987            1.640957           -0.571238
O               -0.997868           -2.591318           -1.024713
O                1.622060           -1.921422           -1.870548
C                0.581058            2.534451           -2.595576
H                1.474237            2.548374           -3.225336
H               -0.126700            3.267955           -3.002559
O                0.979772            2.902571           -1.285878
H                0.208137            2.709755           -0.721343
H               -2.043200            1.786845           -0.157456
H               -1.899321           -2.654808           -0.660946
O                4.482280           -0.908150            0.140396
C                3.943825           -1.139493            1.399332
C                3.205318           -2.471329            1.505691
C                2.105035           -2.622202            0.430347
C                2.322829           -1.592087           -0.674138
C                3.826200           -1.551310           -0.959007
H                4.771383           -1.119381            2.118628
H                2.706970           -2.511164            2.482272
H                2.237912           -3.612079           -0.030844
H                4.207618           -2.579033           -1.039721
H                2.002166           -0.610428           -0.321813
O                0.854158           -2.528776            1.061887
O                4.215291           -3.449766            1.400015
O                3.069427           -0.044242            1.656941
C                4.220842           -0.826750           -2.227536
H                5.308498           -0.732594           -2.248940
H                3.911356           -1.432657           -3.084482
O                3.688437            0.484459           -2.329843
H                2.731969            0.408130           -2.486722
H                0.177548           -2.837838            0.436701
H                3.856238           -4.303037            1.654222
C                2.673878            0.213223            3.000120
H                1.786119           -0.383250            3.238510
H                3.482617           -0.076198            3.685667
C                2.384865            1.697527            3.107014
H                1.899549            1.873560            4.071419
H                1.631618            1.953531            2.350970
C                3.635813            2.593280            2.972569
H                3.757599            3.153523            3.902791
H                4.531326            1.963199            2.895931
C                3.648615            3.606552            1.817513
H                2.644358            4.019751            1.659142
H                4.275695            4.457179            2.102211
C                4.211092            3.097833            0.498885
H                5.205165            2.668262            0.649737
H                4.302675            3.911232           -0.224144
N                3.367176            2.046996           -0.113569
H                3.207220            1.272346            0.558629
H                3.789411            1.584114           -0.943494
H                2.454200            2.412159           -0.449504
