84
input.log
O                2.887137           -0.415553           -1.321540
C                3.592882           -0.258919           -0.085949
C                4.914974           -1.017226           -0.161151
C                4.711662           -2.309784           -0.967878
C                3.271566           -2.799836           -0.914934
C                2.348599           -1.727242           -1.502906
H                2.999290           -0.682411            0.728318
H                5.200920           -1.280291            0.866729
H                4.960261           -2.071452           -2.011038
H                3.192514           -3.704494           -1.531533
H                2.310430           -1.859086           -2.587934
O                2.886970           -3.091583            0.417248
O                5.498782           -3.375453           -0.484145
O                5.938352           -0.300626           -0.803371
O                3.844042            1.086554            0.100265
C                0.936131           -1.772116           -0.939834
H                0.466403           -2.725395           -1.194746
H                0.954936           -1.688397            0.150870
O                0.128562           -0.739633           -1.506307
H                0.577235            0.114729           -1.393185
H                3.562585           -3.676005            0.778579
H                6.425049           -3.121687           -0.514617
H                6.006014            0.564165           -0.387521
O                0.123204            2.933573            0.657067
C                0.630977            2.251979            1.778231
C                1.727608            1.251762            1.383086
C                2.794769            1.944790            0.555970
C                2.173997            2.709116           -0.614719
C                1.089774            3.643870           -0.092093
H                1.039942            2.956432            2.515426
H                1.255221            0.472925            0.771683
H                3.300132            2.672818            1.201355
H                2.959870            3.313469           -1.086682
H                1.579481            4.401945            0.540862
O                1.596212            1.847407           -1.587766
O                2.321591            0.702993            2.522451
O               -0.442494            1.643311            2.423649
C                0.326003            4.370982           -1.189055
H               -0.333075            5.114115           -0.735882
H                1.034769            4.897155           -1.840376
O               -0.502982            3.499879           -1.938493
H                0.080095            2.811759           -2.288749
H                2.254259            1.163297           -1.812928
H                1.684597            0.065855            2.878823
O               -3.388627            0.106608            0.919267
C               -3.406872           -1.158406            1.538838
C               -1.992370           -1.676263            1.739132
C               -1.127533           -0.646487            2.438453
C               -1.173074            0.675202            1.690389
C               -2.628020            1.130861            1.548897
H               -3.944983           -1.108436            2.500255
H               -1.563096           -1.857907            0.741067
H               -1.506247           -0.485132            3.458603
H               -3.029762            1.352911            2.549173
H               -0.764109            0.545946            0.682558
O                0.209858           -1.108200            2.491172
O               -1.954989           -2.843862            2.519571
O               -4.029606           -2.036102            0.659904
C               -2.814180            2.351980            0.668229
H               -3.870345            2.638763            0.701449
H               -2.210324            3.171963            1.059112
O               -2.462981            2.056955           -0.673133
H               -1.746694            2.643123           -0.995232
H                0.198786           -1.996508            2.865807
H               -2.431901           -3.541241            2.060832
C               -5.448732           -1.856639            0.496743
H               -5.860958           -2.862328            0.377357
H               -5.862948           -1.425831            1.415004
C               -5.767179           -0.985318           -0.705140
H               -5.270468           -0.021418           -0.562977
H               -6.841465           -0.773415           -0.696117
C               -5.372470           -1.618876           -2.052281
H               -4.667278           -2.444347           -1.881984
H               -6.252637           -2.090393           -2.495765
C               -4.760375           -0.633987           -3.062472
H               -5.099934           -0.864290           -4.076242
H               -5.102309            0.386013           -2.853734
C               -3.240950           -0.673397           -3.100681
H               -2.834293            0.085395           -3.772484
H               -2.897741           -1.651314           -3.449427
N               -2.638396           -0.453362           -1.761422
H               -2.736263            0.526954           -1.402465
H               -1.617470           -0.647864           -1.746787
H               -3.077090           -1.052979           -1.055496
