84
input.log
O                1.259059            2.578941            1.903309
C                1.594456            1.217795            1.959108
C                0.490465            0.389337            2.619030
C               -0.852224            0.680257            1.956229
C               -1.099031            2.181110            1.854043
C                0.078843            2.813126            1.134578
H                2.514534            1.164854            2.546286
H                0.432816            0.704993            3.670059
H               -0.852266            0.240992            0.953284
H               -2.019399            2.363026            1.292246
H                0.188725            2.350498            0.148589
O               -1.311327            2.717538            3.148637
O               -1.913545            0.051365            2.659900
O                0.776887           -0.993010            2.561705
O                1.794018            0.669836            0.682524
C               -0.058113            4.302146            0.904809
H               -0.359612            4.813283            1.826859
H                0.913718            4.695701            0.584307
O               -1.039624            4.440467           -0.110517
H               -1.331465            5.353205           -0.144525
H               -0.452230            2.933573            3.528289
H               -2.132549            0.606645            3.419225
H                1.700000           -1.093247            2.270218
O                2.580083           -1.363599           -1.283342
C                2.533523           -0.215462           -2.127594
C                2.975590            1.057841           -1.349011
C                3.098651            0.828414            0.156249
C                3.956270           -0.411033            0.486247
C                3.846905           -1.447402           -0.639700
H                3.255564           -0.361457           -2.941207
H                2.231853            1.841998           -1.519193
H                3.558476            1.725446            0.581411
H                5.002268           -0.100664            0.564208
H                4.632286           -1.224164           -1.374276
O                3.517927           -0.918954            1.741205
O                4.268548            1.452172           -1.771472
O                1.305920           -0.163687           -2.759750
C                3.996420           -2.879824           -0.158809
H                3.068500           -3.188967            0.340446
H                4.160675           -3.536586           -1.018539
O                5.092137           -2.906124            0.742510
H                5.400814           -3.806771            0.856378
H                4.156422           -1.599444            1.994562
H                4.197813            1.954895           -2.585676
O               -1.945921           -1.059631           -1.403424
C               -2.750345           -0.009541           -1.916008
C               -1.999211            1.304388           -1.799988
C               -0.627459            1.228218           -2.453846
C                0.129963           -0.002288           -1.976758
C               -0.754366           -1.240578           -2.150051
H               -2.994838           -0.222332           -2.972405
H               -1.866276            1.495291           -0.726732
H               -0.766002            1.146976           -3.543151
H               -0.987225           -1.355853           -3.221647
H                0.387404            0.118824           -0.920386
O                0.128667            2.377793           -2.146176
O               -2.684190            2.365914           -2.415611
O               -3.884506            0.082041           -1.142286
C               -0.121209           -2.531285           -1.679433
H               -0.846486           -3.340278           -1.795629
H                0.754492           -2.753524           -2.294101
O                0.240573           -2.486604           -0.307418
H                1.062485           -1.972790           -0.257316
H               -0.467518            3.137314           -2.117751
H               -3.494240            2.528442           -1.924588
C               -4.820030           -0.986286           -1.321689
H               -5.616452           -0.646240           -1.993075
H               -4.315087           -1.834338           -1.795931
C               -5.392827           -1.384500            0.024528
H               -6.126255           -2.182540           -0.144634
H               -5.947718           -0.533987            0.433760
C               -4.344743           -1.826581            1.043409
H               -3.651103           -0.993294            1.192074
H               -4.842184           -1.992976            2.006832
C               -3.586527           -3.091516            0.648844
H               -4.291308           -3.918330            0.504203
H               -3.071741           -2.941025           -0.305378
C               -2.570977           -3.545574            1.684456
H               -2.108923           -4.491447            1.393221
H               -3.038605           -3.682766            2.663417
N               -1.475756           -2.552905            1.849298
H               -0.783565           -2.831394            2.544214
H               -1.819329           -1.631573            2.177384
H               -0.927958           -2.409878            0.969372
