84
input.log
O                2.887405           -0.415257           -1.321077
C                3.593218           -0.259454           -0.085524
C                4.915274           -1.017635           -0.161353
C                4.711691           -2.310356           -0.967878
C                3.271329           -2.799818           -0.915507
C                2.348843           -1.726801           -1.503373
H                2.999679           -0.683302            0.728597
H                5.201871           -1.280637            0.866362
H                4.961057           -2.072425           -2.010916
H                3.192088           -3.704275           -1.532379
H                2.311220           -1.858123           -2.588487
O                2.886369           -3.091807            0.416482
O                5.497857           -3.376445           -0.483368
O                5.938089           -0.300809           -0.804217
O                3.844538            1.085948            0.101495
C                0.936124           -1.771646           -0.940966
H                0.466208           -2.724670           -1.196467
H                0.954533           -1.688441            0.149794
O                0.129117           -0.738660           -1.507286
H                0.578088            0.115460           -1.393633
H                3.562109           -3.675974            0.777998
H                6.424393           -3.123728           -0.513623
H                6.005566            0.564104           -0.388572
O                0.123811            2.933469            0.658033
C                0.631070            2.250980            1.778883
C                1.727631            1.250758            1.383474
C                2.795203            1.944118            0.557195
C                2.174947            2.709138           -0.613295
C                1.090789            3.643886           -0.090454
H                1.040080            2.954854            2.516611
H                1.255364            0.472422            0.771362
H                3.300425            2.671739            1.203147
H                2.961065            3.313619           -1.084697
H                1.580497            4.401505            0.543042
O                1.597239            1.848069           -1.586915
O                2.321020            0.701148            2.522730
O               -0.442674            1.642217            2.423639
C                0.327577            4.371781           -1.187296
H               -0.331360            5.114941           -0.733968
H                1.036682            4.898002           -1.838200
O               -0.501509            3.501294           -1.937333
H                0.081416            2.813266           -2.287972
H                2.255519            1.164468           -1.812768
H                1.683836            0.063790            2.878345
O               -3.388387            0.106324            0.917810
C               -3.407978           -1.158111            1.538642
C               -1.993846           -1.676863            1.739164
C               -1.128364           -0.647280            2.437949
C               -1.173273            0.674474            1.689932
C               -2.628051            1.130481            1.547952
H               -3.945830           -1.106456            2.500123
H               -1.564808           -1.859380            0.741160
H               -1.506806           -0.485602            3.458148
H               -3.030240            1.352181            2.548129
H               -0.764008            0.545225            0.682221
O                0.208860           -1.109574            2.490518
O               -1.957172           -2.844053            2.520280
O               -4.031661           -2.035996            0.660752
C               -2.813700            2.352002            0.667782
H               -3.869842            2.638874            0.700539
H               -2.209951            3.171722            1.059376
O               -2.461729            2.057702           -0.673572
H               -1.745482            2.644256           -0.995063
H                0.197540           -1.997606            2.865777
H               -2.434552           -3.541373            2.061950
C               -5.450496           -1.854728            0.496934
H               -5.864016           -2.859963            0.378315
H               -5.864464           -1.422482            1.414629
C               -5.767226           -0.983983           -0.705805
H               -5.269996           -0.020336           -0.563778
H               -6.841386           -0.771344           -0.698042
C               -5.371499           -1.618643           -2.052049
H               -4.665235           -2.442924           -1.880521
H               -6.250948           -2.091845           -2.495159
C               -4.760341           -0.634090           -3.063175
H               -5.100299           -0.865095           -4.076645
H               -5.102536            0.385917           -2.854882
C               -3.240920           -0.673001           -3.102051
H               -2.834818            0.085060           -3.775009
H               -2.897608           -1.651240           -3.449780
N               -2.637723           -0.451143           -1.763384
H               -2.734338            0.529835           -1.405704
H               -1.617132           -0.647217           -1.748500
H               -3.076930           -1.048612           -1.056035
