84
input.log
O                2.293667            1.798633            1.923624
C                2.084163            0.415231            1.930579
C                0.747679            0.061244            2.582610
C               -0.376455            0.860272            1.920973
C               -0.039202            2.349699            1.878080
C                1.301909            2.523301            1.189104
H                2.924061           -0.009528            2.488606
H                0.808504            0.355116            3.636894
H               -0.515799            0.488961            0.901707
H               -0.820095            2.875066            1.318805
H                1.216401            2.123751            0.173241
O               -0.068452            2.882616            3.191162
O               -1.614156            0.651353            2.582544
O                0.494638           -1.323953            2.555130
O                2.025147           -0.129796            0.637432
C                1.774391            3.950226            1.067935
H                0.937584            4.565407            0.708990
H                2.080719            4.327527            2.051235
O                2.849215            3.954969            0.149080
H                3.303484            4.797448            0.205217
H                0.799784            2.752529            3.587900
H               -1.625871            1.215828            3.366215
H                0.973051           -1.734233            1.814873
O                1.910246           -1.899120           -1.412426
C                2.120898           -0.798915           -2.289131
C                2.836050            0.359708           -1.558764
C                3.218949           -0.041767           -0.134393
C                3.961410           -1.369615           -0.161317
C                3.113266           -2.449852           -0.885570
H                2.759348           -1.116184           -3.123067
H                2.165567            1.218767           -1.519846
H                3.863776            0.739687            0.281296
H                4.876013           -1.200285           -0.737957
H                3.695751           -2.857248           -1.725828
O                4.297121           -1.790653            1.160188
O                4.000818            0.666102           -2.299881
O                0.906163           -0.466527           -2.870779
C                2.710676           -3.617092           -0.002894
H                2.025695           -4.254176           -0.567574
H                3.598969           -4.207769            0.241355
O                2.035012           -3.218816            1.176734
H                2.724846           -2.885001            1.763724
H                5.230987           -1.645788            1.318971
H                4.155756            1.611969           -2.253119
O               -2.396632           -0.526234           -1.342785
C               -2.924029            0.710174           -1.792185
C               -1.849987            1.773254           -1.671411
C               -0.584624            1.374650           -2.414487
C               -0.136710           -0.023636           -2.014025
C               -1.325742           -0.982514           -2.154028
H               -3.256963            0.603706           -2.840776
H               -1.617070            1.853623           -0.599301
H               -0.795673            1.366764           -3.494397
H               -1.630516           -1.000897           -3.213380
H                0.202368           -0.021142           -0.971941
O                0.444147            2.296257           -2.126164
O               -2.254831            3.014607           -2.193144
O               -3.961081            1.076479           -0.965710
C               -1.024388           -2.404836           -1.739461
H               -1.936440           -2.998574           -1.839494
H               -0.260872           -2.821083           -2.400982
O               -0.606131           -2.494377           -0.388079
H                0.346345           -2.306511           -0.375162
H                0.140559            3.169252           -2.394769
H               -3.051013            3.290583           -1.729532
C               -5.144374            0.279763           -1.081224
H               -5.857833            0.799050           -1.730840
H               -4.892555           -0.678004           -1.547913
C               -5.731224            0.071778            0.301129
H               -6.648152           -0.520640            0.195254
H               -6.033521            1.044715            0.702087
C               -4.773320           -0.595191            1.285838
H               -3.880754            0.035118            1.363968
H               -5.239768           -0.601948            2.278382
C               -4.392377           -2.023729            0.905647
H               -5.292761           -2.645937            0.853097
H               -3.933440           -2.043585           -0.088312
C               -3.442083           -2.682907            1.889780
H               -3.279413           -3.733427            1.639627
H               -3.829691           -2.632569            2.911001
N               -2.111382           -2.021019            1.882160
H               -1.450919           -2.423023            2.549227
H               -2.154794           -1.020281            2.140783
H               -1.634361           -2.097698            0.954531
