84
input.log
O               -2.141943            2.457443           -1.108193
C               -2.078523            1.146693           -1.587662
C               -0.825340            0.940821           -2.440470
C                0.414219            1.262774           -1.618811
C                0.288338            2.682077           -1.077423
C               -1.024131            2.829163           -0.310570
H               -2.982175            1.008901           -2.187414
H               -0.875882            1.660725           -3.264196
H                0.509962            0.542993           -0.800833
H                1.115855            2.870483           -0.376058
H               -0.960215            2.169584            0.565349
O                0.416839            3.511690           -2.211938
O                1.599311            1.153990           -2.391244
O               -0.738068           -0.388216           -2.939808
O               -2.039372            0.197088           -0.548298
C               -1.269711            4.220475            0.226464
H               -2.271884            4.245912            0.669235
H               -0.530010            4.418523            1.013803
O               -1.153104            5.166832           -0.825164
H               -1.364347            6.045596           -0.505242
H                0.004739            4.366094           -2.013641
H                1.679324            1.964720           -2.911476
H               -1.212171           -0.424585           -3.773729
O               -2.145094           -2.214960            0.927305
C               -2.330262           -1.381143            2.046404
C               -2.998396           -0.036988            1.651885
C               -3.267721            0.053117            0.154640
C               -4.010438           -1.186086           -0.325019
C               -3.314684           -2.484949            0.173386
H               -2.984535           -1.879343            2.775951
H               -2.338954            0.783881            1.943562
H               -3.891974            0.935689           -0.013684
H               -5.015667           -1.137577            0.104929
H               -4.024297           -3.045555            0.801753
O               -4.081527           -1.110963           -1.745943
O               -4.268221            0.084426            2.268358
O               -1.105513           -1.260787            2.693170
C               -2.857176           -3.395278           -0.952521
H               -2.502497           -4.335484           -0.524411
H               -3.694358           -3.623341           -1.620836
O               -1.766176           -2.847529           -1.665456
H               -1.994001           -1.955388           -1.962721
H               -4.927345           -1.449472           -2.043098
H               -4.147881            0.306741            3.194163
O                2.217108           -1.042372            1.201026
C                2.786380           -0.024347            1.998857
C                1.763810            1.077188            2.192668
C                0.480018            0.529777            2.788874
C               -0.039417           -0.650350            1.978442
C                1.099070           -1.667470            1.814247
H                3.095838           -0.448580            2.971801
H                1.546086            1.477953            1.192257
H                0.691332            0.168448            3.806849
H                1.370872           -2.034784            2.817826
H               -0.376191           -0.326082            0.988287
O               -0.498972            1.549394            2.837764
O                2.216989            2.093302            3.054352
O                3.854079            0.524193            1.322952
C                0.763636           -2.871931            0.963033
H                1.611196           -3.564314            1.008177
H               -0.117303           -3.368649            1.371797
O                0.554949           -2.510144           -0.386403
H               -0.378819           -2.623109           -0.671612
H               -0.130181            2.266835            3.363384
H                3.041631            2.439936            2.700864
C                4.998161           -0.325041            1.196069
H                5.720869           -0.064340            1.977668
H                4.695323           -1.366488            1.344684
C                5.602744           -0.126485           -0.179882
H                6.502222           -0.750481           -0.248658
H                5.937174            0.912559           -0.266373
C                4.645768           -0.439802           -1.328053
H                3.764198            0.200995           -1.218679
H                5.125843           -0.154461           -2.272100
C                4.235006           -1.907920           -1.401245
H                5.126632           -2.537144           -1.502032
H                3.735607           -2.209315           -0.474266
C                3.320236           -2.232809           -2.569438
H                3.138289           -3.307809           -2.633943
H                3.752450           -1.901941           -3.518008
N                1.996442           -1.574337           -2.416017
H                1.349820           -1.815991           -3.165353
H                2.054218           -0.540191           -2.431487
H                1.516296           -1.877805           -1.523452
